* C:\Users\adity\AppData\Local\LTspice\examples\ApplicationsCopy\LT1991.asc
* Generated by LTspice 24.1.9 for Windows.
V1 -V 0 -5
V2 +V 0 +5
X§U1 N001 NC_01 NC_02 -V 0 OUT +V NC_03 NC_04 0 LT1991
V4 N001 0 SINE(0 .1 100)
.tran .1
.lib LT1991.sub
.backanno
.end
