* C:\Users\adity\AppData\Local\LTspice\examples\ApplicationsCopy\LT1997-2.asc
* Generated by LTspice 24.1.9 for Windows.
V1 V+ 0 15
V2 V- 0 -15
X§U1 IN MP_01 0 MP_02 0 0 0 V- OUT NC_03 V+ OUT MP_04 OUT MP_05 0 LT1997-2
Vs IN 0 SINE(0 169.7 60)
.tran 50m
* Direct Line Voltage (120 VAC, 60Hz) Measurement
.lib LT1997-2.sub
.backanno
.end
