* C:\Users\adity\AppData\Local\LTspice\examples\ApplicationsCopy\LT1965B.asc
* Generated by LTspice 24.1.9 for Windows.
R1 OUT N001 5.11K
R2 N001 0 4.75K
C1 OUT 0 10µ
V1 IN 0 PWL(0 0 1 5)
Rload OUT 0 2.5
X§U1 IN IN 0 OUT N001 LT1965
.tran 1 startup
.lib LT1965.lib
.backanno
.end
