* C:\Users\adity\AppData\Local\LTspice\examples\ApplicationsCopy\LT1997-3.asc
* Generated by LTspice 24.1.9 for Windows.
V1 V+ 0 15
V2 V- 0 -15
R1 IN+ IN- 1
R2 N001 IN+ 1
RL IN- 0 1
Vs IN+ 0 SINE(0 20 1k)
X§U1 N001 MP_01 NC_02 MP_03 NC_04 0 0 V- OUT NC_05 V+ NC_06 MP_07 NC_08 MP_09 IN- LT1997-3
* Gain = 1 Difference Amplifier
.tran 2m
.lib LT1997-3.sub
.backanno
.end
