* C:\Users\adity\AppData\Local\LTspice\examples\ApplicationsCopy\LT1963-1.8.asc
* Generated by LTspice 24.1.9 for Windows.
V1 IN 0 PWL(0 0 1 10)
Rload OUT 0 1K
X§U1 IN IN 0 OUT OUT LT1963-1.8
C1 OUT 0 10µ Rser=50m
.tran 1
.lib LT1963.lib
.backanno
.end
