* C:\Users\adity\AppData\Local\LTspice\examples\ApplicationsCopy\LT1965-3.3.asc
* Generated by LTspice 24.1.9 for Windows.
C1 OUT 0 10µ
V1 IN 0 pwl(0 0 1 5)
Rload OUT 0 3.3
X§U1 IN IN 0 OUT OUT LT1965-x.x R=20.52K
.tran 1 startup
.lib LT1965.lib
.backanno
.end
