* C:\Users\adity\AppData\Local\LTspice\examples\ApplicationsCopy\LT3093.asc
* Generated by LTspice 24.1.9 for Windows.
V2 IN 0 PWL(0 0 500m -5)
R1 0 N001 33.2K
R2 0 N002 3.75k
R4 OUT PGFB 475k
R6 PGFB 0 50k
R3 PG N003 100K
Rload OUT 0 16.6
C2 OUT 0 10µ
C1 0 N001 4.7µ
R5 N004 0 100K
V1 N003 0 3.3
X§U1 IN MP_01 N003 PG PGFB N002 N004 N001 0 OUT OUT LT3093
.tran 500m startup
.lib LT3093.sub
.backanno
.end
