* C:\Users\adity\AppData\Local\LTspice\examples\ApplicationsCopy\LT3010-5.asc
* Generated by LTspice 24.1.9 for Windows.
V1 IN 0 PWL(0 0 1 10)
C1 OUT 0 1µ
Rload OUT 0 1K
X§U1 OUT OUT MP_01 0 IN MP_02 MP_03 IN LT3010-5
.tran 1
.lib LT3010.lib
.backanno
.end
