* C:\Users\adity\AppData\Local\LTspice\examples\ApplicationsCopy\LT3009-3.3.asc
* Generated by LTspice 24.1.9 for Windows.
V1 IN 0 PWL(0 0 1 10)
C1 OUT 0 1µ
Rload OUT 0 330
X§U1 IN OUT MP_01 0 IN LT3009-3.3
.tran 1
.lib LT3009.lib
.backanno
.end
