* C:\Users\adity\AppData\Local\LTspice\examples\ApplicationsCopy\LT3008-1.2.asc
* Generated by LTspice 24.1.9 for Windows.
V1 IN 0 PWL(0 0 1 10)
C1 OUT 0 1µ
Rload OUT 0 120
X§U1 IN OUT OUT 0 IN LT3008-1.2
.tran 1
.lib LT3009.lib
.backanno
.end
