* C:\Users\adity\AppData\Local\LTspice\examples\ApplicationsCopy\LT3048-12.asc
* Generated by LTspice 24.1.9 for Windows.
V1 IN 0 3.3
L1 IN N002 10µ Rser=.65
C1 N001 0 4.7µ
C2 OUT N003 .1n
C3 OUT 0 1µ Rser=10m
Rload OUT 0 413.8
X§U1 N002 IN 0 N003 OUT N001 IN N001 LT3048-12
.tran 1.5m startup
.lib LT3048-12.sub
.backanno
.end
