* C:\Users\adity\AppData\Local\LTspice\examples\ApplicationsCopy\LT3022-1.8.asc
* Generated by LTspice 24.1.9 for Windows.
V1 IN 0 PWL(0 0 1 10)
Rload OUT 0 10
C1 OUT 0 10µ
X§U1 MP_01 MP_02 OUT MP_03 MP_04 MP_05 OUT MP_06 IN 0 MP_07 IN LT3022-1.8
.tran 1
.lib LT3022-1.8.sub
.backanno
.end
