* C:\Users\adity\AppData\Local\LTspice\examples\ApplicationsCopy\LT3014B.asc
* Generated by LTspice 24.1.9 for Windows.
V1 N001 0 PWL(0 0 1 10)
R1 OUT N002 3.92Meg
R2 N002 0 1.27Meg
Rload OUT 0 250
C1 OUT 0 .47µ
X§U1 OUT N002 MP_01 0 MP_02 MP_03 MP_04 N001 LT3014B
.tran 1
.lib LT3014.lib
.backanno
.end
