* C:\Users\adity\AppData\Local\LTspice\examples\ApplicationsCopy\LT3012B.asc
* Generated by LTspice 24.1.9 for Windows.
V1 IN 0 PWL(0 0 1 10)
C1 OUT 0 3.3µ
R1 OUT N001 750K
R2 N001 0 249K
Rload OUT 0 100
X§U1 IN OUT 0 N001 LT3012B
.tran 1
.lib LT3012B.sub
.backanno
.end
