* C:\Users\adity\AppData\Local\LTspice\examples\ApplicationsCopy\LT317A.asc
* Generated by LTspice 24.1.9 for Windows.
V1 IN 0 SINE(10 100m 100K)
R1 OUT N001 121
R2 N001 N002 121
Rload OUT 0 10
X§U2 N002 0 NC_01 LT1009
X§U1 N001 OUT IN LT317A
.tran 50u
.lib LT317A.sub
.lib LTC3.lib
.backanno
.end
