* C:\Users\adity\AppData\Local\LTspice\examples\ApplicationsCopy\LT3495-1.asc
* Generated by LTspice 24.1.9 for Windows.
R1 OUT N003 909K
V1 IN 0 3.6 Rser=0.1
L1 IN N001 10µ
C1 N002 0 2.2µ
C2 OUT 0 1µ
D1 N001 N002 1N5817
Rload OUT 0 500
X§U1 0 MP_01 IN IN IN N003 OUT N002 MP_02 N001 LT3495-1
.model D D
.lib C:\Users\adity\AppData\Local\LTspice\lib\cmp\standard.dio
.tran 1m startup
.lib LT3495-1.sub
.backanno
.end
