* C:\Users\adity\AppData\Local\LTspice\examples\ApplicationsCopy\LT3439.asc
* Generated by LTspice 24.1.9 for Windows.
L1 N005 0 500µ Rser=50m
L2 IN N004 500µ Rser=50m
L3 0 N002 500µ Rser=50m
L4 N001 IN 500µ Rser=50m
D1 N005 OUT MBRS140
D2 N002 OUT MBRS140
R1 N006 0 16.9K
R2 N007 0 17K
C1 0 N003 1000p
V1 IN 0 5
C2 OUT 0 47µ Rser=10m
Rload OUT 0 10
X§U1 0 IN N001 N007 IN N003 N006 N004 0 LT3439
.model D D
.lib C:\Users\adity\AppData\Local\LTspice\lib\cmp\standard.dio
.tran 1m startup
K1 L1 L2 L3 L4 0.998
.lib LT3439.sub
.backanno
.end
