* C:\Users\adity\AppData\Local\LTspice\examples\ApplicationsCopy\LT3502A.asc
* Generated by LTspice 24.1.9 for Windows.
V1 IN 0 5
R1 IN N003 15K
C1 N003 0 .1µ
L1 N002 OUT 6.8µ
R2 OUT N005 31.6K
R3 N005 0 10K
C2 OUT 0 10µ
R4 OUT 0 6.6
D1 N004 N002 MBR0520L
C3 N001 N002 .1µ
X§U1 IN OUT N005 N003 0 N004 N001 N002 LT3502A
.model D D
.lib C:\Users\adity\AppData\Local\LTspice\lib\cmp\standard.dio
.tran 1.2m startup
.lib LT3502A.sub
.backanno
.end
