* C:\Users\adity\AppData\Local\LTspice\examples\ApplicationsCopy\LT3685.asc
* Generated by LTspice 24.1.9 for Windows.
L1 N004 OUT 4.7µ Rpar=2K
D1 0 N004 MBRS340
C1 OUT 0 22µ
V1 IN 0 30
R1 OUT N008 316K
R2 N008 0 100K
C2 N004 N006 .47µ
C3 N002 0 470p
R3 N003 N002 14K
R4 N005 0 40.2K
R5 OUT N007 100K
R6 IN N001 500K
C4 N001 0 .01µ
Rload OUT 0 1.65
X§U1 OUT N006 N004 IN N001 0 N007 N008 N003 N005 0 LT3685
.model D D
.lib C:\Users\adity\AppData\Local\LTspice\lib\cmp\standard.dio
.tran 1m startup
.lib LT3685.sub
.backanno
.end
