* C:\Users\adity\AppData\Local\LTspice\examples\ApplicationsCopy\LT3695-3.3.asc
* Generated by LTspice 24.1.9 for Windows.
V1 IN 0 12
C1 N008 N007 470p
R1 N007 0 16.3K
R2 N005 0 40.2K
C2 N003 N004 .22µ
D1 N006 N004 MBRS140
L1 N004 OUT 10µ
C3 OUT 0 10µ
R3 OUT 0 6
C4 N002 0 .1µ
R4 IN N002 10K
X§U1 0 N006 MP_01 N004 N002 N005 0 IN N008 MP_02 MP_03 MP_04 N001 0 OUT N003 LT3695-x R=313.3K
.model D D
.lib C:\Users\adity\AppData\Local\LTspice\lib\cmp\standard.dio
.tran 500u startup
.lib LT3695-x.sub
.backanno
.end
