* C:\Users\adity\AppData\Local\LTspice\examples\ApplicationsCopy\LT3682.asc
* Generated by LTspice 24.1.9 for Windows.
L1 N003 OUT 10µ Rpar=2K
D1 N005 N003 1N5817
C1 OUT 0 10µ
V1 IN 0 30
R1 OUT N008 536K
R2 N008 0 102K
C2 N002 N003 .22µ
C3 N006 0 470p
R3 N007 N006 16.2K
R4 N004 0 40.2K
R5 IN N001 500K
C4 N001 0 .01µ
X§U1 N007 N008 NC_01 0 OUT N002 N005 N003 N001 N004 MP_02 IN LT3682
Rload OUT 0 5
.model D D
.lib C:\Users\adity\AppData\Local\LTspice\lib\cmp\standard.dio
.tran 500u startup
.lib LT3682.sub
.backanno
.end
