* C:\Users\adity\AppData\Local\LTspice\examples\ApplicationsCopy\LT3650-8.2.asc
* Generated by LTspice 24.1.9 for Windows.
V1 IN 0 24
L1 N001 N002 10µ
R1 N002 OUT 50m
C1 OUT 0 .1m
C2 N001 N003 1µ
D1 OUT N003 1N5817
D2 0 N001 MBRS340
X§U1 IN IN IN NC_01 NC_02 0 NC_03 NC_04 OUT N002 N003 N001 0 LT3650-8.2
.model D D
.lib C:\Users\adity\AppData\Local\LTspice\lib\cmp\standard.dio
.tran 3m startup
.lib LT3650-8.2.sub
.backanno
.end
