* C:\Users\adity\AppData\Local\LTspice\examples\ApplicationsCopy\LT3695-5.asc
* Generated by LTspice 24.1.9 for Windows.
V1 IN 0 12
C1 N007 N006 470p
R1 N006 0 16.2K
R2 N004 0 40.2K
C2 N002 N003 0.22µ
D1 N005 N003 MBRS140
L1 N003 OUT 10µ
C3 OUT 0 10µ
Rload OUT 0 6
C4 N001 0 0.1µ
R4 IN N001 10K
X§U1 0 N005 N003 N001 N004 0 IN N007 OUT NC_01 N002 0 LT3695-5
.model D D
.lib C:\Users\adity\AppData\Local\LTspice\lib\cmp\standard.dio
.tran 500u startup
.lib LT3695-5.sub
.backanno
.end
