* C:\Users\adity\AppData\Local\LTspice\examples\ApplicationsCopy\LT3845A.asc
* Generated by LTspice 24.1.9 for Windows.
V1 N002 0 36
R1 N004 0 82.5k
R2 N002 N004 1Meg
C1 N005 0 2n
R3 N010 0 49.9k
C2 N012 0 2.2n Rser=20k Cpar=100p
R4 N013 0 16.2k
R5 N009 N013 143k
L1 N007 N008 15µ Rser=7m Rpar=2k
R6 N008 N009 8m
C3 N009 0 100µ
R7 N009 0 2
M1 N007 N011 0 0 Si7370DP
M2 N002 N006 N007 N007 Si7370DP
D1 0 N007 MBRS1100
C4 N003 N007 100n
D2 N001 N003 MBRS140
D3 N009 N001 1N4148
C5 N001 0 1µ
V2 N014 0 PULSE(0 2.5 0 10n 10n {0.5/305k} {1/305k})
X§U2 N002 N004 N005 0 N013 N012 N014 N010 N009 N008 0 N011 N001 N007 N006 N003 0 LT3845A
.model D D
.lib C:\Users\adity\AppData\Local\LTspice\lib\cmp\standard.dio
.model NMOS NMOS
.model PMOS PMOS
.lib C:\Users\adity\AppData\Local\LTspice\lib\cmp\standard.mos
.tran 1.5m startup
.lib LT3845A.sub
.backanno
.end
