* C:\Users\adity\AppData\Local\LTspice\examples\ApplicationsCopy\LT3952A.asc
* Generated by LTspice 24.1.9 for Windows.
V1 IN 0 12
R1 IN N001 15m
L1 N001 N002 10µ Rser=0.1 Rpar=5K
D1 N002 OUT MBRS1100
C1 OUT 0 2.2µ m=2 Rser=25m
C2 N006 0 1µ
C3 N010 N013 8.2n
R2 N011 0 90.9K
C4 N012 0 5n
C5 N008 0 4.7µ
D2 N009 0 LXHL-BW02 n=17
M1 N009 N007 N005 N005 Si7113DN
R3 OUT N005 750m
R4 N004 0 21.5K
R5 OUT N004 1Meg
X§U1 OUT N005 N007 0 NC_01 N002 N004 N010 N003 N003 N012 N011 N003 NC_02 NC_03 NC_04 N008 MP_05 MP_06 N008 MP_07 MP_08 IN IN 0 N001 IN N006 LT3952A
R6 N013 0 3.65K
.model D D
.lib C:\Users\adity\AppData\Local\LTspice\lib\cmp\standard.dio
.model NMOS NMOS
.model PMOS PMOS
.lib C:\Users\adity\AppData\Local\LTspice\lib\cmp\standard.mos
.tran 2.4m startup
.lib LT3952A.sub
.backanno
.end
