* C:\Users\adity\AppData\Local\LTspice\examples\ApplicationsCopy\LT3932-1.asc
* Generated by LTspice 24.1.9 for Windows.
V1 IN 0 20
R1 N011 0 28.7K
R2 N012 0 45.3K
C2 N013 P001 330p
C3 0 N001 1µ
C4 N002 N003 100n
L1 N003 OUT 8.2µ Rser=10m
C5 OUT 0 4.7µ Rser=5m
R3 OUT N007 50m
D1 N010 0 LXHL-BW02 n=3
M1 N010 N008 N007 N007 IRF7343P
R4 OUT N005 110K
R5 N005 0 10K
C1 N004 0 .1µ
C6 N009 0 3.3n
X§U1 N001 N002 N003 OUT N005 OUT N007 N008 NC_01 0 N013 N012 N011 N009 0 NC_02 N006 N004 N004 IN IN LT3932-1
R6 P001 0 10k
R7 N004 N006 10k
R8 N006 0 191k
.model D D
.lib C:\Users\adity\AppData\Local\LTspice\lib\cmp\standard.dio
.model NMOS NMOS
.model PMOS PMOS
.lib C:\Users\adity\AppData\Local\LTspice\lib\cmp\standard.mos
.tran 1m startup
.lib LT3932-1.sub
.backanno
.end
