* C:\Users\adity\AppData\Local\LTspice\examples\ApplicationsCopy\LT3971-5.asc
* Generated by LTspice 24.1.9 for Windows.
R1 N005 0 49.9K
L1 N006 OUT 4.7µ
C1 OUT 0 22µ
Rout OUT 0 4.16
V1 IN 0 24
D1 0 N006 DFLS220L
C2 N004 N006 .47µ
R5 N001 0 1Meg
R6 IN N001 5Meg
C3 N003 0 .001µ
X§U1 OUT N004 N006 IN N001 OUT N003 N005 N002 MP_01 0 LT3971-5
.model D D
.lib C:\Users\adity\AppData\Local\LTspice\lib\cmp\standard.dio
.tran 1.5m startup
.lib LT3971-5.sub
.backanno
.end
