* C:\Users\adity\AppData\Local\LTspice\examples\ApplicationsCopy\LT4200.asc
* Generated by LTspice 24.1.9 for Windows.
V1 IN 0 12
C2 OUT 0 680µ
R1 N005 0 20K
R2 N002 IN 20K
R3 N003 0 20K
R4 OUT N003 150K
R5 OUT N004 20K
C1 N006 0 1µ
S1 0 OUT N001 0 SHORT
V3 N001 0 PULSE(0 1 240m 1m 1m 10m)
X§U1 NC_01 IN N002 0 N006 N006 0 OUT TjFET IN MP_02 MP_03 Gate N004 N002 N003 N005 NC_04 LT4200 Rpcb=12 Tamb=25
.model SHORT SW(Ron=10m Roff=1K Vt=.5 Vh=-.4)
.tran 1.4 startup
.lib LT4200.sub
.backanno
.end
