* C:\Users\adity\AppData\Local\LTspice\examples\ApplicationsCopy\LT4363-2.asc
* Generated by LTspice 24.1.9 for Windows.
R1 N002 N005 10
R2 N001 OUT 15m
R3 OUT N006 221K
R4 N006 0 4.02K
M§Q1 IN N002 N001 N001 IRLR2908
C1 N005 0 47n
C2 N009 0 6.8µ
C3 OUT 0 300µ
V1 IN N003 EXP(0 60 200m 10m 205m 150m)
R5 IN N004 1K
D1 0 N004 1N5371B
R6 IN N007 604K
R7 N007 N008 13K
R8 N008 0 10K
C4 N004 0 0.1µ
X§U1 N006 OUT N001 N005 N004 NC_01 N008 N007 0 NC_02 NC_03 N009 LT4363-2
Rload OUT 0 100
V2 N003 0 40
.model D D
.lib C:\Users\adity\AppData\Local\LTspice\lib\cmp\standard.dio
.model NMOS NMOS
.model PMOS PMOS
.lib C:\Users\adity\AppData\Local\LTspice\lib\cmp\standard.mos
.tran 2 startup
.lib LT4363-2.sub
.backanno
.end
