* C:\Users\adity\AppData\Local\LTspice\examples\ApplicationsCopy\LT4423.asc
* Generated by LTspice 24.1.9 for Windows.
C1 IN 0 0.1µ
V1 IN 0 12
C2 OUT 0 47µ
R1 OUT 0 1
X§U1 IN IN OUT NC_01 0 LT4423
.tran 1m startup
.lib LT4423.sub
.backanno
.end
