* C:\Users\adity\AppData\Local\LTspice\examples\ApplicationsCopy\LT5400-5.asc
* Generated by LTspice 24.1.9 for Windows.
X§U2 N002 N001 +V -V OUT LT1468
V1 +V 0 15
V2 -V 0 -15
V3 IN 0 AC 1
C1 N001 OUT 4.7p
C2 N002 0 4.7p
X§U1 OUT IN 0 0 N002 N002 N001 N001 NC_01 LT5400-5
.ac oct 10 1K 1Meg
.lib LT5400.lib
.lib LTC.lib
.backanno
.end
