* C:\Users\adity\AppData\Local\LTspice\examples\ApplicationsCopy\LT6018.asc
* Generated by LTspice 24.1.9 for Windows.
V1 +V 0 15
V2 0 -V 15
X§U2 IN+ N004 +V -V N003 +V 0 LT6018
X§U3 N003 MP_01 NC_02 0 NC_03 0 +V OUT +V NC_04 0 NC_05 MP_06 N002 -V LT6375
R1 N002 N001 49.9K
X§U1 IN- N001 +V -V N002 +V 0 LT6018
R2 N001 N004 49.9
R3 N004 N003 49.9K
V3 IN- IN+ SINE(0 1m 1K)
V4 IN+ 0 0
.tran 100m
* Low Noise Instrumentation Amplifier\nGain= 2000V/V
.lib LT6018.lib
.lib LT6375.lib
.backanno
.end
