* C:\Users\adity\AppData\Local\LTspice\examples\ApplicationsCopy\LT6275.asc
* Generated by LTspice 24.1.9 for Windows.
X§U1 0 N002 +V -V N003 LT6275
V1 +V 0 15
V2 -V 0 -15
R1 N003 N002 1K
V3 N001 0 SINE(0 10 3Meg)
R2 N002 N001 1K
.tran 10u
.lib LTC7.lib
.backanno
.end
