* C:\Users\adity\AppData\Local\LTspice\examples\ApplicationsCopy\LT6237.asc
* Generated by LTspice 24.1.9 for Windows.
V1 +V 0 5
V2 -V 0 -5
R1 N002 N001 1K
R2 N001 0 1K
V3 N003 0 SINE(0 1 1K)
X§U1 N003 N001 N002 +V -V LT6237
.tran 3m
.lib LTC7.lib
.backanno
.end
