* C:\Users\adity\AppData\Local\LTspice\examples\ApplicationsCopy\LT6372-0.2.asc
* Generated by LTspice 24.1.9 for Windows.
V1 +V 0 15
V2 -V 0 -15
V5 N001 0 5
X§U1 N004 0 N002 -V 0 OUT +V N003 N004 N003 N001 N001 0 LT6372-0.2
V4 N002 0 SINE(0 10 1K)
.tran 10m
.lib LT6372-0.2.sub
.backanno
.end
