* C:\Users\adity\AppData\Local\LTspice\examples\ApplicationsCopy\LT6402-6.asc
* Generated by LTspice 24.1.9 for Windows.
V1 N001 0 5
V2 N003 0 2.2
X§U1 N001 N003 N001 0 _OUT NC_01 NC_02 OUT 0 N001 0 0 N002 N002 N004 N004 LT6402-6
V3 N002 N004 SINE(0 .1 10Meg)
.tran 1u
.lib LTC5.lib
.backanno
.end
