* C:\Users\adity\AppData\Local\LTspice\examples\ApplicationsCopy\LT6657-2.5.asc
* Generated by LTspice 24.1.9 for Windows.
C1 OUT 0 1µ
V1 IN 0 PWL(0 0 3m 3 7m 3 10m 0)
R1 OUT 0 250
C2 IN 0 .1µ
X§U1 IN IN OUT 0 LT6657-2.5
.tran 10m
.lib LT6657.lib
.backanno
.end
