* C:\Users\adity\AppData\Local\LTspice\examples\ApplicationsCopy\LT6658-3.asc
* Generated by LTspice 24.1.9 for Windows.
C1 N001 0 1µ
V3 IN 0 PWL(0 0 100u 0 +2u 5.5)
C2 OUT2 0 1µ
C3 OUT1 0 1µ
X§U1 IN IN IN IN N001 OUT1 OUT1 OUT2 OUT2 0 N002 LT6658-3
.tran 500u
.lib LT6658.lib
.backanno
.end
