* C:\Users\adity\AppData\Local\LTspice\examples\ApplicationsCopy\LT6656-1.25.asc
* Generated by LTspice 24.1.9 for Windows.
C1 N002 0 1µ
V1 N001 0 PWL(0 0 1m 0 +100n 1.75)
X§U1 0 N001 N002 LT6656-1.25
.tran 20m
.lib LT6656.lib
.backanno
.end
