* C:\Users\adity\AppData\Local\LTspice\examples\ApplicationsCopy\LT6700-1.asc
* Generated by LTspice 24.1.9 for Windows.
V1 N001 0 5
V3 N002 0 PULSE(0 5 0 .5m .5m 0 1m)
X§U1 N004 0 N002 N002 N001 N003 LT6700-1
R1 N001 N003 10K
R2 N001 N004 10K
.tran 3m
.lib LT6700-1.sub
.backanno
.end
