* C:\Users\adity\AppData\Local\LTspice\examples\ApplicationsCopy\LT7171-1.asc
* Generated by LTspice 24.1.9 for Windows.
V1 IN 0 12
C5 0 VDD18 4.7µ
V2 RUN 0 PWL(500u 0 500.001u 5 2500u 5 2500.001u 0)
R5 EXTVCC _ALERT 100k
R6 EXTVCC PGOOD 100k
C9 0 DRVCC 10µ
R7 EXTVCC _FAULT 6.8k
L2 SW0 OUT 330n Rser=2.5m
C10 OUT 0 100µ x2 Rser=5m
C11 OUT 0 100µ x2 Rser=2m
C12 BOOST1 SW1 0.1µ
C13 BOOST0 SW0 0.1µ
L3 SW1 OUT 330n Rser=2.5m
R8 OUT 0 0.283
C14 0 INTVCC 10µ
V5 EXTVCC 0 5
R1 N001 EXTVCC 11.4k
X§U1 IN SW0 0 SW1 BOOST0 BOOST1 DRVCC INTVCC EXTVCC VDD18 _ALERT 0 OUT 0 RUN PGOOD INTVCC N002 0 0 _FAULT N001 NC_01 0 LT7171-1 FREQUENCY_SWITCH=750k VOUT_RANGE=0 VOUT_COMMAND=0.85 VIN_ON= 1.4 VIN_OFF=1.35 TON_DELAY=.01m TON_RISE=.5m TOFF_DELAY=.2m TOFF_FALL=.3m ILIM_RANGE=0 EN_SYNC_OUT=1 GMEA_CONTROL=10 RITH=7k CITH=320p MFR_PWM_PHASE=180 VOUT_UV_FAULT_LIMIT=0.6 VOUT_OV_FAULT_LIMIT=1.1 VOUT_UV_WARN_LIMIT=0.7 VOUT_OV_WARN_LIMIT=1 MFR_DISCHARGE_THRESHOLD=0.2 MFR_RETRY_DELAY=10m TON_MAX_FAULT_LIMIT=5m
.tran 2m startup
* Please read the following notes carefully since all the LT7171-1 features and programmability choices are not modelled\n \n(1) PMBus communication and memory address related functions and pins are not modeled, \nincluding SDA, SCL, WP. The pins shown in the symbol is only for representation \n(2) Changes to parameter values while the simulation is running will not take effect unless the\nsimulation is stopped and restarted. This is different from the way the part operates which will\nrespond to the changes while running.  \n(3) Resistor Configuration pins are not modelled (VOUT_CFG,ASEL, PWM_CFG). The pins shown in the symbol is only for representation \n(4) Only default fault responses are modelled. The part offers diffeent fault responses choices\n(5) Initialization time is not modelled.\n \nThe following parameters can be defined by right-clicking on the LT7171-1 symbol.\nThe nomenclature used here may differ from the one in the data sheet. If any value of these parameters is\nset beyond the scope described in the data sheet, the resulting simulation will not be meaningful.:\n \nFrequency_switch -- in Hz, sets switching frequency\n \nVout_range -- sets maximum output range, 0 for 1.375V, 1 for 2.75V, 2 for 5.5V\n \nVout_command -- in volt, sets output voltage\n \nTon_delay & Ton_rise -- in sec, set ON delay and soft-start time\nToff_delay & Toff_fall -- in sec, set OFF delay and soft-off time \n \nIlim_range -- sets current limit options:\n   0 positive valley current limit of 4.5A per phase, negative valley current limit of -3A\n   1 positive valley current limit of 6.5A per phase, negative valley current limit of -3.8A\n   2 positive valley current limit of 7.8A per phase, negative valley current limit of -4.7A\n   3 positive valley current limit of 10.7A per phase, negative valley current limit of -6A         \n \n \n     \nGMEA_control--Sets Error Amp parameters, N=0 to 31\n     GmEA = 0.15mS*(n+1)/(2^VOUT_RANGE)   (relative to VSENSE inputs)\n     \n \nRITH--in ohm, programmable internal compensation\n \nCITH--in Farad, programmable internal compensation\n \n \nMFR_PWM_PHASE-- in degree, sets the SW0 phase delay in 15-degree increments with respect to the SYNC frequency if present.\n \n \n \nVout_UV_Fault_Limit and Vout_OV_Fault_Limit --- in volt, set the undervoltage and overvoltage fault limit.\nVout_UV_Warn_Limit and Vout_OV_Warn_Limit-- in volt, set the undervoltage and overvoltage warning limit.\n \n \nMFR_DISCHARGE_THRESHOLD--Output voltage threshold to determine that the output has decayed sufficiently to enable the channel\n \nMFR_RETRY_DELAY -- sets the time in milliseconds to retry the LT7171-1 after shuts down due to a fault\n \nEN_SYNC_OUT ---1 Output SYNC Pulses, 0 SYNC works as input.\n \nTON_MAX_FAULT_LIMIT--  Determines how long the LT7171-1 can attempt to soft-start the output without reaching the output undervoltage fault limit.\n \nTo simulate Polyphase load-sharing operation \n \nTie RUN, VIN, SHARE_CLK, _FAULT, _ALERT, PGOOD, ITH pins of all the parts together\nset EN_SYNC_OUT = 1 for only one part and set EN_SYNC_OUT = 0 for all other parts\nThe parameters set in both the part should be identical other than EN_SYNC_OUT
.lib LT7171-1.sub
.backanno
.end
