* C:\Users\adity\AppData\Local\LTspice\examples\ApplicationsCopy\LT7182S.asc
* Generated by LTspice 24.1.9 for Windows.
L1 SW0 OUT0 1µ Rser=2.5m
C1 BOOST0 SW0 0.1µ
C2 OUT0 0 200µ Rser=2.5m Lser=.2n
I1 OUT0 0 PULSE(0 6 1.4m 1u 50u 100u) load
V1 VIN 0 12
V2 EXTVCC 0 5
V3 RUN0 0 PWL(500u 0 500.001u 5 3000u 5 3000.001u 0)
C3 0 VDD18 4.7µ
C4 0 DRVCC 10µ
C5 0 INTVCC 10µ
V4 CLK_EXT 0 PULSE(0 5 2.5m 1n 1n 500n 1u 500)
C6 CLK_EXT SYNC/PWM_CFG 1.5n
R1 SYNC/PWM_CFG 0 162k
R2 _ALERT EXTVCC 4700
R3 EXTVCC PGOOD1 10k
R6 PGOOD0 EXTVCC 10k
R7 _FAULT EXTVCC 10k
C7 0 N001 470p
R10 ITH1 N001 15k
L2 SW1 OUT1 470n Rser=2.5m
C8 BOOST1 SW1 0.1µ
C9 OUT1 0 200µ Rser=2.5m Lser=.2n
I2 OUT1 0 PULSE(0 4 1.9m 1u 1u 100u) load
X§U1 VIN SW0 0 SW1 BOOST0 BOOST1 DRVCC INTVCC EXTVCC VDD18 _ALERT 0 OUT0 0 RUN0 PGOOD0 ITH1 SYNC/PWM_CFG VIN OUT1 0 PGOOD0 INTVCC PGOOD1 _FAULT _FAULT LT7182S FREQUENCY_SWITCH=1Meg MFR_PWM_PHASE_0=0 VOUT_COMMAND_0=3.3 HPLV_0=0 PulseSkipMode_0=1 ILIM_RANGE_0=2 GMEA_CONTROL_0=3 RITH_0=40k CITH_0=80p OUTPUT_DISCHARGE_0=1 VOUT_UV_FAULT_LIMIT_0=3.069 VOUT_OV_FAULT_LIMIT_0=3.63 VOUT_UV_WARN_LIMIT_0=3.086 VOUT_OV_WARN_LIMIT_0=3.5475 VIN_ON_0=1.5 VIN_OFF_0=1.45 TON_DELAY_0=0.01m TON_RISE_0=0.5m TOFF_DELAY_0=0.1m TOFF_FALL_0=0.3m MFR_PWM_PHASE_1=180 VOUT_COMMAND_1=0.8 HPLV_1=1 PulseSkipMode_1=0 ILIM_RANGE_1=2 GMEA_CONTROL_1=7 RITH_1=40k CITH_1=80p OUTPUT_DISCHARGE_1=1 VOUT_UV_FAULT_LIMIT_1=0.744 VOUT_OV_FAULT_LIMIT_1=0.88 VOUT_UV_WARN_LIMIT_1=0.748 VOUT_OV_WARN_LIMIT_1=0.86 VIN_ON_1=1.4 VIN_OFF_1=1.35 TON_DELAY_1=0.1m TON_RISE_1=0.5m TOFF_DELAY_1=0 TOFF_FALL_1=0.3m
.tran 3.6m startup
* NOTES FOR SIMULATION\n \nPlease read the following notes carefully since the model behaves differently from the user \ninterface for the LT7182S.\n \n(1) PMBus communication and memory address related functions and pins are not modeled, \nincluding SDA, SCL, WP.  \n(2) Changes to parameter values while the simulation is running will not take effect unless the\nsimulation is stopped and restarted. This is different from the way the part operates which will\nrespond to the changes while running.  \n(3) SHARE_CLK is not modeled. The default time reference of LTspice is used as the common time \nbase for all time-related parameters.\n(4) Resistor Configuration pins are not modelled (VOUT0_CFG, VOUT1_CFG, ASEL)\n(5) Initialization time is not modelled.  After power is applied to PVIN0 or EXTVCC, the real LT7182S\nrequires 13ms (typical) before power conversion or communication can begin.\n \n \nDESCRIPTION OF PARAMETERS\n \nThe following parameters can be defined by right-clicking on the LT7182S symbol.\nThe nomenclature used here differs from the one in the data sheet. If any value of these parameters is\nset beyond the scope described in the data sheet, the resulting simulation will not be meaningful.:\n \nFREQUENCY_SWITCH -- in Hz, sets switching frequency for both channels\n \nThe parameters below are set independantly for each channel (0 and 1): \nVOUT_COMMAND_n -- in volt, sets output voltage\n \nTON_DELAY_n & TON_RISE_n -- in sec, set turn-on delay and soft-start time\nTOFF_DELAY_n & TOFF_FALL_n -- in sec, set turn-off delay and soft-off time \n \nIlim_range_n -- selects inductor valley current limit option:\n   0 positive valley current limit of 3A, negative valley current limit of -2.3A\n   1 positive valley current limit of 4.5A, negative valley current limit of -3.4A\n   2 positive valley current limit of 6.5A, negative valley current limit of -4A\n   3 positive valley current limit of 8.5A, negative valley current limit of -4.25A         \n \nPulseSkipMode_n --sets operation mode: 1 for pulse skip mode, 0 for forced continuous conduction mode\n \nFCM_DURING_TOFF_FALL_n -- if set to 1, channels uses FCM during soft-off ramp-down,\n                                                regardless of PulseSkipMode_n\n \nGMEA_control_n --Sets Error Amp parameters, x=0 to 7\n     GmEA = 0.15mS*(x+1)*(1+3*HPLV_n)  (relative to VSENSE)\n \nHPLV_n -- if set to 1, selects High-Performance Low-Vout mode (max 1.375Vout, GMEA is 4X higher)\n \nRITH_n --in ohm, programmable internal compensation\n \nCITH_n --in Farad, programmable internal compensation\n \nMFR_PWM_PHASE_n -- in degree, sets the channel phase delay in 15-degree increments \n                                        (this is relative to the SYNC  input clock if present).\n \nOutput_discharge--0 for disabled, 1 for 250 Ohm discharge engaged when channel is off or ramping off\n \nVout_UV_Fault_Limit and Vout_OV_Fault_Limit --- in volt, set the fault limits for the PGOOD and /FAULT outputs\n      Note channel shuts down if VOUT OV FAULT occurs, or VIN>23.2V, or /FAULT pin is pulled low externally\nVout_UV_Warn_Limit and Vout_OV_Warn_Limit-- in volt, set the warning limit for the /ALERT output
.lib LT7182S.sub
.backanno
.end
