* C:\Users\adity\AppData\Local\LTspice\examples\ApplicationsCopy\LT7200S.asc
* Generated by LTspice 24.1.9 for Windows.
V1 IN 0 18
R1 N005 0 100K
L1 N001 OUT1 0.6µ
R2 OUT1 N002 14K
R3 N002 0 10K
C5 OUT1 0 47µ m=2
C6 N007 0 4.7µ
L2 N003 OUT2 0.6µ
R4 OUT2 N004 26.1K
R5 N004 0 10K
C1 OUT2 0 47µ m=2
Rload1 OUT1 0 0.24
L3 N006 OUT3 1.5µ
R6 OUT3 N008 56.2K
R7 N008 0 10K
C2 OUT3 0 47µ m=2
Rload2 OUT2 0 0.361
L4 N009 OUT4 1.5µ
R8 OUT4 N010 90.9K
R9 N010 0 10K
C3 OUT4 0 47µ m=2
Rload3 OUT3 0 0.665
Rload4 OUT4 0 1
X§U2 0 0 NC_01 IN N003 N004 NC_02 N001 N007 IN IN NC_03 IN NC_04 N006 NC_05 N002 N007 IN N008 NC_06 N007 NC_07 IN N007 N009 N010 NC_08 N007 NC_09 IN IN IN N005 LT7200S
.tran 600u startup
.lib LT7200S.sub
.backanno
.end
