* C:\Users\adity\AppData\Local\LTspice\examples\ApplicationsCopy\LT8210-1.asc
* Generated by LTspice 24.1.9 for Windows.
V1 IN 0 12
C1 N003 0 22µ
C2 N006 N009 220n
R1 N023 OUT 2m
L1 N014 N017 12µ
M§Q4 N009 N011 0 0 BSC032NE2LS
R2 N009 N014 2m
C3 N007 0 4.7µ
R3 N020 OUT 155.6K
R4 N020 0 14.3K
R5 N013 0 11K
R6 N010 0 174K
C5 OUT 0 220µ
D1 N007 N019 MURS120
D2 N007 N006 MURS120
C6 N019 N017 220n
C7 N005 0 1µ
R7 N005 N008 10K
C8 N013 0 15n
R10 OUT 0 2
R11 N016 N015 10K
C9 N015 0 22n
C10 N016 0 330p
M1 N003 N002 IN IN IPD068N10N3
M2 N003 N004 N009 N009 IPD068N10N3
M3 N017 N018 0 0 IPD048N06L3
M4 N023 N021 N017 N017 IPD048N06L3
R13 IN N001 10K
R14 N001 0 90K
C13 OUT 0 47µ
C4 N012 0 10n
R15 N022 0 100K
X§U1 N001 0 0 NC_01 N008 N010 0 N005 N012 N013 N016 NC_02 NC_03 N020 MP_04 OUT MP_05 OUT N023 N021 N017 N019 MP_06 N018 0 N011 N007 N022 MP_07 N006 N009 N004 N014 N009 MP_08 N003 N002 IN LT8210-1
.model D D
.lib C:\Users\adity\AppData\Local\LTspice\lib\cmp\standard.dio
.model NMOS NMOS
.model PMOS PMOS
.lib C:\Users\adity\AppData\Local\LTspice\lib\cmp\standard.mos
.tran 4m startup
.lib LT8210-1.sub
.backanno
.end
