* C:\Users\adity\AppData\Local\LTspice\examples\ApplicationsCopy\LT8253A.asc
* Generated by LTspice 24.1.9 for Windows.
L1 N001 sw2 1µ Rser=13m
R1 N006 0 10K
R2 OUT N006 110K
C1 N010 0 2200p
V1 IN 0 PWL(0 0 100u 8 2m 8 2.1m 11 3m 11 3.1m 12 4m 12 4.1m 13 5m 13 5.1m 24 10m 24)
C2 IN 0 22µ x1
C3 OUT 0 22µ Rser=5m
R3 N008 0 59K
R4 N007 N010 10K
M§Q1 OUT tg2 sw2 sw2 BSC032NE2LS
C4 N003 sw2 .1µ
M§Q2 sw2 bg2 0 0 BSC032NE2LS
R5 IN N004 383K
R6 N004 0 165K
C5 IN 0 4.7µ x2
C6 intvcc 0 4.7µ
C7 vref 0 .47µ
R9 N005 intvcc 100K
C8 sw1 N002 .1µ
M§Q3 IN tg1 sw1 sw1 BSZ065N06LS5
M§Q4 sw1 bg1 0 0 BSZ065N06LS5
C9 N009 0 10n
R10 N001 sw1 5m
Rload OUT 0 3
C11 OUT 0 1µ
C12 IN 0 .47µ
D1 intvcc N003 BAT46WJ
D2 intvcc N002 BAT46WJ
C13 OUT 0 22µ x2 Rser=5m
X§U1 bg1 N002 sw1 tg1 sw1 N001 IN intvcc N004 MP_01 vref vref MP_02 MP_03 MP_04 MP_05 N005 N009 N006 N007 N008 0 MP_06 OUT tg2 sw2 N003 bg2 0 LT8253A
.model D D
.lib C:\Users\adity\AppData\Local\LTspice\lib\cmp\standard.dio
.model NMOS NMOS
.model PMOS PMOS
.lib C:\Users\adity\AppData\Local\LTspice\lib\cmp\standard.mos
.tran 10m startup
* LT8253A - 40V 2MHz Synchronous 4-Switch Buck-Boost Controller with Spread Spectrum\nHigh Efficiency 48W 2MHz Buck-Boost Voltage Regulator\nInput: 4V to 24V, 60V Trans       Output: 12V @ 4A, Fsw = 2MHz
* Note:\n  If the simulation model is not found please update with the "Sync Release" command from the "Tools" menu.\n  It remains the customer's responsibility to verify proper and reliable operation in the actual application.\n  Component substitution and printed circuit board layout may significantly affect circuit performance or reliability.\n  Contact your local sales representative for assistance. This circuit is distributed to customers only for use with ADI parts.\n  Copyright © 2018 Analog Devices. All rights reserved.
.lib LT8253A.sub
.backanno
.end
