* C:\Users\adity\AppData\Local\LTspice\examples\ApplicationsCopy\LT8277.asc
* Generated by LTspice 24.1.9 for Windows.
V1 IN 0 25
R1 N001 IN 10m
L1 N001 N002 10µ
D1 N002 OUT RB085BM-90
M1 N002 N005 0 0 BSC028N06LS3
R2 N003 IN 10m
L2 N003 N004 10µ
D2 N004 OUT RB085BM-90
M2 N004 N006 0 0 BSC028N06LS3
C1 OUT 0 10µ m=5
R4 N009 N008 10K
C2 0 N009 22n
R5 N007 N010 100K
C3 N007 0 4.7µ
R6 N011 0 200K
X§U2 IN IN IN N001 N003 IN NC_01 NC_02 NC_03 0 NC_04 N011 N008 N007 N010 OUT N005 N006 0 N007 LT8277 CLKOUT=1 CLKOUT_EN=1 SS=1 PH2_LL=0 t0=30m v0=30 t1=50m v1=60 t2=65m v2=45 t3=75m v3=50 t4=85m v4=40 t5=95m v5=35 t6=115m v6=55 t7=125m v7=48 t8=135m v8=32 t9=150m v9=52
RLOAD OUT 0 30.1
.model D D
.lib C:\Users\adity\AppData\Local\LTspice\lib\cmp\standard.dio
.model NMOS NMOS
.model PMOS PMOS
.lib C:\Users\adity\AppData\Local\LTspice\lib\cmp\standard.mos
.tran 21m startup
* Variable definition\n \nCLKOUT --> Clock out Pin Phase, 0 for 45deg, 1 for 90deg\nCLKOUT_EN --> Enable Clock Out, 0 for Disable, 1 for Enable\nPH2_LL --> Phase 2 Light Load Enable, 0 for Disable, 1 for Enable\nSS --> Enables the 4x faster soft start, 0 for Disable, 1 for Enable\n \nt0, v0 to t9, v9 --> 10 pairs of PWL settings\n \nNote: All 10 pairs must be defined whether the programming features \n          are used or not.\n          Just make the remaining voltage setting at same level.\n \n          t0 must not be lower than 200us, this is to ensure that the first \n          command will not be ignored. During this time, the part is still \n          initializing the Enable and INTVcc\n \n          The time interval between 2 set points must not be lower than 3us\n          to allow time for capturing the set value and not greater than 32ms\n          else, the Watchdog Timer will expire (for FLOATED and HIGH modes)\n \n          A pulse, used to represent a valid CRC is generated to reset \n          the WDT in sync with the time set on t0 to t9. After t9, no more \n          command can be sent and thus WDT expires after 32ms.\n \n          Communication pins are not modeled.
.lib LT8277.sub
.backanno
.end
