* C:\Users\adity\AppData\Local\LTspice\examples\ApplicationsCopy\LT8333.asc
* Generated by LTspice 24.1.9 for Windows.
C1 SS 0 10n
R1 N004 0 20k
V1 IN 0 5
L1 IN N001 3.3µ Rser=19.5m
D1 N001 OUT MBRS340
R5 N003 0 71.5k
C4 N002 0 1µ
C2 N006 0 330pF
R2 N005 N006 68k
C3 OUT 0 10µ
R3 OUT N003 1Meg
R4 OUT 0 48
C5 OUT N003 4.7pF
X§U1 0 IN IN N002 0 N005 N003 N004 SS 0 N001 LT8333
.model D D
.lib C:\Users\adity\AppData\Local\LTspice\lib\cmp\standard.dio
.tran 5m startup
.lib LT8333.sub
.backanno
.end
