* C:\Users\adity\AppData\Local\LTspice\examples\ApplicationsCopy\LT83201.asc
* Generated by LTspice 24.1.9 for Windows.
V1 vIN 0 12
R1 N003 0 47.5k
C1 N004 0 2.2n
C2 N006 0 1µ
C3 N008 0 4.7µ
R2 N005 N004 1.82k
L1 N002 vOUT 3.3µ Rser=5m
C4 vOUT 0 150µ Rser=2m
R4 vOUT N007 280k
R5 N007 0 49.9k
R3 N008 0 33.2k
C5 N001 N002 0.1µ
Rload vOUT 0 3.32
X§U1 N002 NC_01 0 N003 vIN N001 NC_02 vIN N006 N008 N005 vOUT N007 LT83201
.tran 7m startup
.lib LT83201.sub
.backanno
.end
