* C:\Users\adity\AppData\Local\LTspice\examples\ApplicationsCopy\LT8350S.asc
* Generated by LTspice 24.1.9 for Windows.
L1 N001 N002 2.2µ
R1 N007 N006 100k
R2 IN N004 499k
R3 N004 0 115K
C5 IN 0 10µ
V1 IN 0 12
R6 OUT N005 110k
R7 N005 0 10k
C6 N003 0 4.7µ
R8 N003 OUT 30m
R9 N010 N009 3.9k
C7 0 N010 3.3n
C8 0 N011 10n
R10 0 N012 14.3k
C10 OUT 0 47µ
Rload OUT 0 6
X§U1 MP_01 IN MP_02 MP_03 N004 N006 N006 N006 N008 NC_04 N003 OUT N008 N005 N009 N007 N011 N012 0 N013 0 NC_05 MP_06 N003 MP_07 MP_08 N002 MP_09 NC_10 NC_11 N001 MP_12 0 LT8350S
C1 0 N013 15p
C2 N006 0 1µ
.tran 2m startup
.lib LT8350S.sub
.backanno
.end
