* C:\Users\adity\AppData\Local\LTspice\examples\ApplicationsCopy\LT8391D.asc
* Generated by LTspice 24.1.9 for Windows.
C1 N018 0 5n
C2 P001 0 2.2n
V1 IN 0 40
R1 N001 N002 4m
C3 N001 N004 0.1µ
M§Q1 IN N009 N001 N001 BSC067N06LS3
M§Q2 N001 N007 0 0 BSC100N06LS3
L1 N002 N003 10µ Rser=2m
R2 N006 OUT 50m
M§Q3 N006 N010 N003 N003 BSC093N04LS
M§Q4 N003 N008 0 0 BSC093N04LS
C4 N005 N003 0.1µ
R3 N017 0 100K
R4 OUT N014 1Meg
C5 N012 0 4.7µ
C6 N015 0 0.47µ
R5 N014 0 34.8k
R6 N011 0 221K
R7 IN N011 499K
C7 N006 0 10µ x2
R8 N013 N012 100K
R9 N016 P001 2.2K
R11 N018 N015 499K
X§U1 N007 N004 N001 N009 N001 N002 IN N012 N011 0 N015 N015 N015 N006 OUT 0 N013 N018 N014 N016 N017 0 N008 N006 N010 N003 N005 LT8391D
D§LED1 OUT 0 LXK2-PW14 N=6 M=2
.model D D
.lib C:\Users\adity\AppData\Local\LTspice\lib\cmp\standard.dio
.model NMOS NMOS
.model PMOS PMOS
.lib C:\Users\adity\AppData\Local\LTspice\lib\cmp\standard.mos
.tran 2m startup
.lib LT8391D.sub
.backanno
.end
