* C:\Users\adity\AppData\Local\LTspice\examples\ApplicationsCopy\LT8349.asc
* Generated by LTspice 24.1.9 for Windows.
V1 vIN 0 4
L1 vIN SW1 470n Rser=10m
R1 vOUT FB 1Meg
R2 FB 0 200k
Rload vOUT 0 50
R4 N004 0 54.9k
C2 SW1 N001 0.1µ
R3 VC N003 8.25k
C4 N003 0 470p
COUT vOUT 0 22µ Rser=1m
L2 vIN SW2 470n Rser=10m
C1 SW2 N002 0.1µ
X§U1 0 N004 0 FB vOUT SW1 N001 NC_01 vIN vIN VC SW2 N002 LT8349
C3 vOUT FB 4.7p Rser=10m
C5 VC 0 4.7p
.tran 2.5m startup
* 2MHz
* SYNC/MODE Pin:\nGND: Burst \n50k to GND: Burst + SSFM\nFloat: FCM \nVin: FCM + SSFM\nExternal Clock: FCM + Sync
* ISET   IBURST\nVin     1.7A\nFloat   1.47A\nGND   1.23A
.lib LT8349.sub
.backanno
.end
