* C:\Users\adity\AppData\Local\LTspice\examples\ApplicationsCopy\LT83203.asc
* Generated by LTspice 24.1.9 for Windows.
V1 IN 0 12
R1 N003 0 47.5K
C2 N006 0 1µ
C3 N009 0 2.2µ
R2 N009 0 10K
L1 N002 OUT 0.47µ Rser=10m
C4 OUT 0 100µ Rser=10m
R4 OUT N007 49.9K
R5 N007 0 49.9K
R3 OUT N005 100K
C5 N001 N002 0.1µ
X§U2 N002 NC_01 0 N003 IN N001 N005 IN N006 N009 N004 OUT N007 LT83203
R6 N004 N008 499
Rload OUT 0 0.2
C1 N008 0 10n
C6 N004 0 82p
.tran 1.5m startup
.lib LT83203.sub
.backanno
.end
