* C:\Users\adity\AppData\Local\LTspice\examples\ApplicationsCopy\LT8337-1.asc
* Generated by LTspice 24.1.9 for Windows.
C1 N006 0 1µ
V1 IN 0 7.2
L1 IN N001 2.2µ Rser=9m
R1 OUT N004 1Meg
R2 N004 0 71.5k
Rload OUT 0 25
R4 N007 0 47.5k
C2 N001 N002 0.1µ
R3 N003 N005 100k
C4 N005 0 220p
C6 OUT 0 22µ x4 Rser=10m
X§U1 0 N007 0 N004 OUT N001 N002 N006 IN IN N003 LT8337-1
.tran 1.6m startup
* 2MHz
* 15V
.lib LT8337-1.sub
.backanno
.end
