* C:\Users\adity\AppData\Local\LTspice\examples\ApplicationsCopy\LT8338.asc
* Generated by LTspice 24.1.9 for Windows.
C1 N003 0 1µ
V1 vIN 0 12
L1 vIN N001 10µ Rser=65m
R1 N003 N005 301k
R2 N005 0 1Meg
C3 vOUT 0 4.7µ Rser=3m
Rload vOUT 0 225
R4 N004 0 40.2k
C2 N001 N002 0.1µ
X§U1 0 N004 0 N005 vOUT N001 N002 N003 vIN vIN LT8338
.tran 3m startup
* 2.2MHz
.lib LT8338.sub
.backanno
.end
