* C:\Users\adity\AppData\Local\LTspice\examples\ApplicationsCopy\LT8692S.asc
* Generated by LTspice 24.1.9 for Windows.
L1 N001 OUT1 1.25µ
R11 OUT1 N002 1Meg
R12 N002 0 191K
C11 OUT1 N002 4.7p
C12 OUT1 0 47µ
V1 IN_HV 0 12
L2 N003 OUT2 1.5µ
R2 OUT2 N004 1Meg
R3 N004 0 316K
C4 OUT2 N004 4.7p
C5 OUT2 0 47µ
Rload2 OUT2 0 6.65
L3 N005 OUT3 1µ
R5 OUT3 N006 1Meg
R6 N006 0 806K
Rload3 OUT3 0 3.61
L4 N008 OUT4 0.68µ
R7 OUT4 N010 499K
R8 N010 0 1Meg
Rload4 OUT4 0 1.2
R1 N009 0 100K
C3 N007 0 1µ
V2 IN_LV 0 5
Rload1 OUT1 0 5
C1 OUT3 0 47µ
C2 OUT4 0 220µ
C6 OUT3 N006 4.7p
C7 OUT4 N010 4.7p
X§U2 IN_HV IN_HV IN_HV IN_LV IN_LV IN_LV N002 N004 N006 N010 N007 0 N008 N005 N003 IN_LV N001 NC_01 N009 0 LT8692S
.tran 1.5m startup
.lib LT8692S.sub
.backanno
.end
