* C:\Users\adity\AppData\Local\LTspice\examples\ApplicationsCopy\LT8618A-3.3.asc
* Generated by LTspice 24.1.9 for Windows.
L1 N002 OUT 120µ Rser=0.8
C1 OUT 0 22µ Rser=2m
R2 N005 0 110K
V1 IN 0 12
R3 OUT N006 100k
Rload OUT 0 33
C2 N001 N002 47n
C3 N003 0 1µ
C4 N004 0 10n
X§U1 N001 N002 OUT N003 N005 OUT N004 N006 IN IN 0 LT8618A-3.3
.tran 10m startup
.lib LT8618A-3.3.sub
.backanno
.end
