* C:\Users\adity\AppData\Local\LTspice\examples\ApplicationsCopy\LT8622S.asc
* Generated by LTspice 24.1.9 for Windows.
V1 IN 0 12
R1 N001 0 47k
L1 SW OUT 1µ Rser=6m
R2 PGFB 0 49.9k
Rload OUT 0 1.6
R3 OUT PGFB 280k
C3 N002 0 2n
R4 N002 N003 500
R5 SET 0 33.2k
C1 SET 0 1µ
C2 OUT 0 120µ Rser=5m
R6 OUT PG 100k
X§U1 SW N004 0 CLKout IN NC_01 IN IN N004 N004 SET N003 OUT PGFB N001 PG LT8622S
.tran 1.5m startup
* 2MHz
.lib LT8622S.sub
.backanno
.end
