* C:\Users\adity\AppData\Local\LTspice\examples\ApplicationsCopy\LT8604C.asc
* Generated by LTspice 24.1.9 for Windows.
L1 SW OUT 120µ Rser=1
C1 OUT 0 22µ
R1 FB 0 301k
R2 RT 0 110k
V1 N001 0 12
R3 OUT PG 100k
R4 OUT FB 1.62Meg
X§U1 NC_01 SW OUT SYNC RT FB TRSS PG N001 N001 0 LT8604C LT8604=1 DFN=0 VOUT33=0
Rload OUT 0 50
.tran 3m steady nodiscard
.lib LT8604C.sub
.backanno
.end
