* C:\Users\adity\AppData\Local\LTspice\examples\ApplicationsCopy\LT8643S-2.asc
* Generated by LTspice 24.1.9 for Windows.
R1 N005 0 41.2K
V1 IN 0 24
L1 N006 OUT 3.3µ Rser=10m
C4 OUT 0 100µ Rser=2m
R2 OUT N008 1Meg
R3 N008 0 243K
C5 OUT N008 4.7p
Rload OUT 0 835m
C1 N007 0 1n
C6 N001 0 330p
R4 N002 N001 6.49K
C2 N003 0 1µ
C3 N004 N006 0.1µ
X§U1 OUT N003 N004 IN NC_01 0 N002 N006 0 0 N008 NC_02 IN IN N005 N007 NC_03 LT8643S-2
.tran 1m startup
.lib LT8643S-2.sub
.backanno
.end
