* C:\Users\adity\AppData\Local\LTspice\examples\ApplicationsCopy\LT8637.asc
* Generated by LTspice 24.1.9 for Windows.
R1 N006 0 41.2K
V1 IN 0 12
L1 N007 OUT 3.3µ Rser=10m
C4 OUT 0 100µ V=6.3 Irms=0 Rser=0.002 Lser=0
R2 OUT N009 1Meg
R3 N009 0 243K
C5 OUT N009 4.7p
Rload OUT 0 1
C1 N008 0 1n
C6 N001 0 330p
R4 N002 N001 6.49K
C2 N005 N007 0.1µ
R5 OUT N003 100K
X§U1 OUT N004 N005 IN NC_01 0 N002 N007 MP_02 0 MP_03 MP_04 IN IN N006 N008 0 0 N003 N009 LT8637
C3 N004 0 1µ
.tran 1m startup
.lib LT8637.sub
.backanno
.end
