* C:\Users\adity\AppData\Local\LTspice\examples\ApplicationsCopy\LT8685S.asc
* Generated by LTspice 24.1.9 for Windows.
L1 N002 OUT1 1.5µ Rser=10.5m
R11 OUT1 N003 1Meg
R12 N003 0 191K
C11 OUT1 N003 2.2p
C12 OUT1 0 47µ
C13 N001 N002 0.1µ
V1 VIN_HV 0 24
L2 N007 OUT2 1.2µ Rser=9.4m
R2 OUT2 N009 1.07Meg
R3 N009 0 340K
C5 OUT2 0 47µ
Rload2 OUT2 0 1.32
C6 N004 N007 0.1µ
L3 N013 OUT3 0.4µ Rser=2.8m
R5 OUT3 N015 1Meg
R6 N015 0 634K
C8 OUT3 0 47µ X2
Rload3 OUT3 0 453m
C9 N011 N013 0.1µ
L4 N018 OUT4 0.3µ Rser=2.5m
R7 OUT4 N020 665K
R8 N020 0 931K
C10 OUT4 N020 3.9p
C14 OUT4 0 100µ
Rload4 OUT4 0 301m
C15 N016 N018 0.1µ
R1 N017 0 22.6K
C3 N005 0 4.7µ
C16 N021 0 10n
C18 N014 0 0.1µ
Rload1 OUT1 0 2
R9 N006 N005 100K
R10 N008 N005 100K
R13 N010 N005 100K
R14 N012 N005 100K
C17 N022 0 10n
C23 VIN_LV 0 2.2µ
R4 N019 0 26.1K
C1 OUT2 N009 2.2p
C2 OUT3 N015 4.7p
V2 VIN_LV 0 5
X§U2 N002 N001 N006 N021 VIN_HV N003 VIN_HV N009 VIN_HV VIN_HV N021 N019 N017 N022 VIN_LV VIN_LV N015 VIN_LV N020 VIN_LV N022 N012 N016 N018 N013 N011 N010 N005 N014 N008 N004 N007 0 LT8685S
.tran 2.5m startup
.lib LT8685S.sub
.backanno
.end
