* C:\Users\adity\AppData\Local\LTspice\examples\ApplicationsCopy\LT8642S.asc
* Generated by LTspice 24.1.9 for Windows.
R1 N005 0 17.8k
V1 IN 0 12
C1 P001 0 1n
R2 IN N006 100k
L1 N001 OUT 0.3µ Rser=2.8m
C2 OUT N002 47p
C4 0 N004 150p
R4 N002 0 100k
Rload OUT 0 0.12
C3 OUT 0 220µ X2 Rser=3.2m
R5 N004 N003 11k
R6 OUT N002 100k
X§U1 NC_01 NC_02 0 IN IN N005 NC_03 N001 NC_04 NC_05 P001 N003 N006 N002 LT8642S
.tran 1m startup
.lib LT8642S.sub
.backanno
.end
