* C:\Users\adity\AppData\Local\LTspice\examples\ApplicationsCopy\LT8648S.asc
* Generated by LTspice 24.1.9 for Windows.
R1 N005 0 38.3K
C1 N003 0 5n
V1 IN 0 24
L1 N006 OUT 1µ Rser=5m
R2 OUT N007 100K
R3 N007 0 13.7K
C5 OUT N007 10p
Rload OUT 0 333m
C2 OUT 0 47µ X2 Rser=6m
R4 N002 N001 100K
C4 N004 N006 0.1µ
C6 N001 0 1µ
C3 N009 0 330p
R5 N008 N009 7.5K
X§U1 N004 N006 N001 N005 0 N007 N003 N002 N008 IN 0 IN NC_01 OUT LT8648S
.tran 4m startup
.lib LT8648S.sub
.backanno
.end
