* C:\Users\adity\AppData\Local\LTspice\examples\ApplicationsCopy\LT8652SP.asc
* Generated by LTspice 24.1.9 for Windows.
V1 IN1 0 12
L1 N001 OUT 0.28µ Rser=10m
R1 FB 0 1Meg
C1 OUT FB 10p
C2 OUT 0 320µ X2
L2 N002 OUT 0.28µ Rser=10m
Rload OUT 0 59m
C3 SS 0 22n
R2 N005 0 27.4K
C6 N004 0 1µ
R4 0 N007 3.57K
R5 N006 0 3.57K
R6 OUT FB 665k
R3 Vc N003 10K
C4 N003 0 1n
R7 PG OUT 100K
V2 SYNC 0 PULSE(0 2 0 10n 10n 200n 500n)
X§U2 N007 SS MP_01 0 IN1 MP_02 MP_03 N005 IN1 MP_04 MP_05 MP_06 IN1 MP_07 PG PG SYNC NC_08 NC_09 N002 MP_10 MP_11 N001 MP_12 MP_13 NC_14 0 N004 SS N006 Vc FB 0 0 FB Vc LT8652SP
.tran 5m startup
.lib LT8652SP.sub
.backanno
.end
