* C:\Users\adity\AppData\Local\LTspice\examples\ApplicationsCopy\LT8640S-2.asc
* Generated by LTspice 24.1.9 for Windows.
R1 N004 0 41.2K
V1 IN 0 12
C2 N002 0 1µ
L1 N005 OUT 3.3µ Rser=10m
C4 OUT 0 100µ V=6.3 Irms=0 Rser=0.002 Lser=0
R2 OUT N007 1Meg
R3 N007 0 243K
C5 OUT N007 10p
Rload OUT 0 0.833
C6 IN 0 1µ
C7 IN 0 1µ
C1 N006 0 1n
R4 OUT N001 100K
C3 N003 N005 0.1µ
X§U1 OUT N002 N003 IN NC_01 0 MP_02 N005 MP_03 0 MP_04 MP_05 IN IN N004 N006 0 0 N001 N007 LT8640S-2
.tran 2m startup
.lib LT8640S-2.sub
.backanno
.end
