* C:\Users\adity\AppData\Local\LTspice\examples\ApplicationsCopy\LT8653S.asc
* Generated by LTspice 24.1.9 for Windows.
X§U1 IN 0 NC_01 NC_02 0 NC_03 N001 N002 N003 0 N003 OUT1 N004 N005 OUT2 N003 N003 IN NC_04 NC_05 LT8653S
L5 N002 OUT2 1µ Rser=10m
C20 OUT2 0 47µ x2 Rser=10m
Rload2 OUT2 0 1.65
L6 N001 OUT1 1µ Rser=10m
C22 OUT1 0 47µ x2 Rser=10m
Rload1 OUT1 0 2.5
C23 N004 0 470p
C24 N005 0 470p
C25 N003 0 1µ
V1 IN 0 24
.tran 0.7m startup
.lib LT8653S.sub
.backanno
.end
