* C:\Users\adity\AppData\Local\LTspice\examples\ApplicationsCopy\LT8627SP.asc
* Generated by LTspice 24.1.9 for Windows.
V1 IN 0 12
R1 N001 0 47k
L1 SW OUT 330n Rser=6m
R2 PGFB 0 49.9k
Rload OUT 0 62.5m
R3 OUT PGFB 49.9k
C3 N002 0 2.2n
R4 N002 N003 2k
R5 SET 0 10k
C1 SET 0 1µ
C2 OUT 0 470µ Rser=5m
R6 OUT PG 100k
X§U1 SW N004 0 CLKout IN NC_01 IN IN N004 N004 SET N003 OUT PGFB N001 PG LT8627SP
.tran 1.5m startup
* 2MHz
.lib LT8627SP.sub
.backanno
.end
