* C:\Users\adity\AppData\Local\LTspice\examples\ApplicationsCopy\LT8643SA.asc
* Generated by LTspice 24.1.9 for Windows.
R1 N004 0 41.2K
V1 IN 0 24
L1 N005 OUT 3.3µ Rser=10m
C4 OUT 0 47µ Rser=2m
R2 OUT N007 1Meg
R3 N007 0 243K
C5 OUT N007 4.7p
Rload OUT 0 835m
C1 N006 0 1n
C6 N002 N001 330p
R4 N001 0 8.45K
C2 N003 0 1µ
X§U1 OUT N003 NC_01 IN NC_02 0 N002 N005 0 0 N007 NC_03 IN IN N004 N006 NC_04 LT8643SA
.tran 1m startup
.lib LT8643SA.sub
.backanno
.end
