* C:\Users\adity\AppData\Local\LTspice\examples\ApplicationsCopy\LT8686S.asc
* Generated by LTspice 24.1.9 for Windows.
L1 N002 OUT1 2.2µ
R11 OUT1 N003 1Meg
R12 N003 0 191K
C11 OUT1 N003 10p
C12 OUT1 0 47µ
C13 N001 N002 0.1µ
V1 VIN_HV 0 24
L2 N007 OUT2 1.5µ
R2 OUT2 N009 1Meg
R3 N009 0 316K
C4 OUT2 N009 10p
C5 OUT2 0 47µ
Rload2 OUT2 0 1.64
C6 N004 N007 0.1µ
L3 N013 OUT3 1µ
R5 OUT3 N014 124K
R6 N014 0 100K
C7 OUT3 N014 47p
C8 OUT3 0 100µ
Rload3 OUT3 0 988m
C9 N011 N013 0.1µ
L4 N017 OUT4 0.56µ
R7 OUT4 N018 100K
R8 N018 0 200K
C10 OUT4 N018 47p
C14 OUT4 0 100µ
Rload4 OUT4 0 604m
C15 N015 N017 0.1µ
R1 N016 0 22.6K
C3 N005 0 4.7µ
C16 N019 0 1n
C18 OUT1 0 1µ
C2 OUT1 0 1µ
V2 VIN_LV 0 8
Rload1 OUT1 0 2.49
C19 OUT2 0 1µ
R9 N006 N005 100K
R10 N008 N005 100K
R13 N010 N005 100K
R14 N012 N005 100K
C21 OUT3 0 1µ
C22 OUT4 0 1µ
C1 N020 0 1n
C17 N021 0 1n
C20 N022 0 1n
X§U2 N002 N001 N006 N019 VIN_HV N003 VIN_HV N009 VIN_HV VIN_HV N020 0 N016 N021 VIN_LV VIN_LV N014 VIN_LV N018 VIN_LV N022 N012 N015 N017 N013 N011 N010 N005 OUT1 N008 N004 N007 0 LT8686S
.tran 0.6m startup
.lib LT8686S.sub
.backanno
.end
