* C:\Users\adity\AppData\Local\LTspice\examples\ApplicationsCopy\LT8619.asc
* Generated by LTspice 24.1.9 for Windows.
R1 N003 0 60.4K
V1 IN 0 48
C2 N001 0 1µ
L1 N004 OUT 10µ Rser=3m
C3 N002 N004 .1µ
C4 OUT 0 22µ V=6.3 Irms=0 Rser=0.002 Lser=0 mfg="TDK" pn="C4532X5ROJ47@M" type="X5R"
R2 OUT N005 1.05Meg
R3 N005 0 200K
C5 OUT N005 10p
Rload OUT 0 1000
X§U1 IN IN N003 NC_01 0 N005 OUT N001 N002 N004 0 LT8619
.tran 1m startup
.lib LT8619.sub
.backanno
.end
