* C:\Users\adity\AppData\Local\LTspice\examples\ApplicationsCopy\LT8640SA.asc
* Generated by LTspice 24.1.9 for Windows.
R1 N002 0 41.2K
V1 IN 0 24
C2 N001 0 1µ
L1 N003 OUT 3.3µ Rser=10m
C4 OUT 0 47µ Rser=2m
R2 OUT N005 1Meg
R3 N005 0 243K
C5 OUT N005 4.7p
Rload OUT 0 1
C6 IN 0 1µ
C7 IN 0 1µ
C1 N004 0 1n
X§U1 OUT N001 NC_01 IN NC_02 0 NC_03 N003 0 0 N005 NC_04 IN IN N002 N004 LT8640SA
.tran 750u startup
.lib LT8640SA.sub
.backanno
.end
