* C:\Users\adity\AppData\Local\LTspice\examples\ApplicationsCopy\LT8638S.asc
* Generated by LTspice 24.1.9 for Windows.
R1 N005 0 38.3K
C1 N003 0 1n
V1 IN 0 24
L1 N006 OUT 3.3µ Rser=9m
R2 OUT N007 1Meg
R3 N007 0 137K
C5 OUT N007 10p
Rload OUT 0 1
C2 OUT 0 100µ Rser=6m
R4 N002 N001 100K
C4 N004 N006 0.22µ
C6 N001 0 1µ
R5 N012 N011 100K
C7 N011 0 1µ
C8 N013 0 1n
R6 N015 0 38.3K
L2 N016 OUT 3.3µ Rser=9m
C9 N014 N016 0.22µ
X§U1 OUT N001 N004 IN N008 N005 N009 N006 0 N003 N007 N002 NC_01 IN 0 LT8638S
X§U2 OUT N011 N014 IN NC_02 N015 N009 N016 0 N013 N007 N012 N008 IN NC_03 LT8638S
R7 N009 N010 13.7K
C3 N010 0 330p
.tran 0.8m startup
.lib LT8638S.sub
.backanno
.end
