* C:\Users\adity\AppData\Local\LTspice\examples\ApplicationsCopy\LT8609S.asc
* Generated by LTspice 24.1.9 for Windows.
R1 N004 0 18.2K
C1 N002 0 1n
V1 IN 0 12
R2 OUT N003 1Meg
R3 N003 0 187K
C5 OUT N003 10p
Rload OUT 0 2.5
C2 OUT 0 22µ Rser=2m
L1 N001 OUT 2.2µ Rser=37m
X§U1 0 N001 NC_01 N004 NC_02 N003 N002 NC_03 IN IN LT8609S
.tran 500u startup
.lib LT8609S.sub
.backanno
.end
