* C:\Users\adity\AppData\Local\LTspice\examples\ApplicationsCopy\LT8608S.asc
* Generated by LTspice 24.1.9 for Windows.
R1 N006 0 18.2K
C1 N004 0 1n
V1 IN 0 12
C2 N001 0 1µ
L1 N003 OUT 2.2µ Rser=3m
C4 OUT 0 22µ V=6.3 Irms=0 Rser=0.002 Lser=0 mfg="TDK" pn="C4532X5ROJ47@M" type="X5R"
R2 OUT N005 1Meg
R3 N005 0 309K
C5 OUT N005 10p
Rload OUT 0 2.2
R4 N001 N002 100K
X§U2 N004 N001 NC_01 IN N005 N002 IN N003 N006 0 LT8608S
.tran 750u startup
.lib LT8608S.sub
.backanno
.end
