* C:\Users\adity\AppData\Local\LTspice\examples\ApplicationsCopy\LT8646S.asc
* Generated by LTspice 24.1.9 for Windows.
R1 N001 0 41.2K
V1 IN 0 12
L1 N002 OUT 2.2µ Rser=10m
C4 OUT 0 100µ V=6.3 Irms=0 Rser=0.002 Lser=0 mfg="TDK" pn="C4532X5ROJ47@M" type="X5R"
R2 OUT N004 1Meg
R3 N004 0 243K
C5 OUT N004 2.2p
Rload OUT 0 .625
C1 N003 0 1n
C2 N006 0 330p
X§U1 OUT NC_01 NC_02 IN IN 0 IN N002 N001 0 N003 0 NC_03 N004 0 NC_04 N005 LT8646S
R4 N005 N006 7.5k
.tran 1m startup
.lib LT8646S.sub
.backanno
.end
