* C:\Users\adity\AppData\Local\LTspice\examples\ApplicationsCopy\LT8698S.asc
* Generated by LTspice 24.1.9 for Windows.
R1 N009 0 3.09k
V1 IN 0 12
C2 N001 0 1µ
L1 N005 N006 1.5µ Rser=3m
C3 N002 N005 .1µ
C4 N006 0 22µ x2 Rser=4m
R2 N007 N010 2k
C5 N007 N010 4.7n
Rload OUT 0 250
R4 N006 N007 10m
R3 N007 OUT 0.3
R5 0 N008 9.09k
I1 OUT 0 PWL(1.4m 0 1.401m 1 1.6m 1 1.601m 0)
R6 N004 N003 100k
V2 N003 0 3
X§U1 0 N001 IN N004 MP_01 MP_02 MP_03 MP_04 N008 NC_05 MP_06 MP_07 MP_08 MP_09 MP_10 MP_11 MP_12 MP_13 N009 N010 N007 N006 MP_14 N005 MP_15 N002 0 MP_16 IN LT8698S
.tran 2m startup
* STATUS, SEL1-3,  LD+,  LD-, HD+, HD- , CLAMP pins are not modeled\nCharger profiles: CCP (1.0A/2.0A/2.1A/2.4A/3A), SDP (500mA), BC1.2 DCP/CDP (1.5A)
.lib LT8698S.sub
.backanno
.end
