* C:\Users\adity\AppData\Local\LTspice\examples\ApplicationsCopy\LT8650S.asc
* Generated by LTspice 24.1.9 for Windows.
V1 IN1 0 24
L1 N003 OUT1 1µ Rser=10m
R1 N005 0 191K
C1 OUT1 N005 4.7p
C2 OUT1 0 47µ m=2 Rser=10m
C3 N008 0 470p
R2 N010 0 15K
V2 IN2 0 24
L2 N004 OUT2 1µ Rser=10m
R3 N006 0 316K
C6 N009 0 470p
C7 N007 0 1µ
Rload1 OUT1 0 2
Rload2 OUT2 0 1
C8 N001 N003 0.1µ
C9 N002 N004 0.1µ
X§U1 0 N003 N007 N010 0 N005 N008 NC_01 IN1 IN1 0 NC_02 N001 N004 N006 N009 N007 N002 N007 NC_03 IN2 IN2 LT8650S
R4 OUT1 N005 1Meg
R5 OUT2 N006 1Meg
C4 OUT2 N006 4.7p
C5 OUT2 0 47µ m=2 Rser=10m
.tran .4m startup
.lib LT8650S.sub
.backanno
.end
