* C:\Users\adity\AppData\Local\LTspice\examples\ApplicationsCopy\LT8644S.asc
* Generated by LTspice 24.1.9 for Windows.
V1 IN 0 5
R1 N005 0 17.8k
C1 N006 0 1n
L1 N001 OUT 150n Rser=6m
R2 N002 0 100k
C2 OUT 0 330µ x2 Rser=4m
Rload OUT 0 0.08
R3 OUT N002 100k
C4 OUT N002 47p
C3 N004 0 1n
R4 N004 N003 11k
X§U2 0 NC_01 0 IN IN MP_02 NC_03 N001 MP_04 MP_05 MP_06 MP_07 MP_08 MP_09 MP_10 MP_11 IN N005 NC_12 NC_13 N006 N003 NC_14 N002 LT8644S
.tran 1m startup
.lib LT8644S.sub
.backanno
.end
