* C:\Users\adity\AppData\Local\LTspice\examples\ApplicationsCopy\LT8647.asc
* Generated by LTspice 24.1.9 for Windows.
R1 N004 0 17.8k
V1 vIN 0 7
L1 N002 vOUT 1µ Rser=6.3m
C4 vOUT 0 100µ Rser=2m
R2 vOUT N005 1Meg
R3 N005 0 243k
C5 vOUT N005 4.7p
Rload vOUT 0 0.714
C1 N006 0 1n
X§U1 vOUT N003 N001 vIN NC_01 0 vIN N002 N004 N005 N006 0 PG LT8647
C2 N002 N001 0.1µ
R4 vOUT PG 100k
C3 N003 0 1µ
.tran 800u startup
.lib LT8647.sub
.backanno
.end
