* C:\Users\adity\AppData\Local\LTspice\examples\ApplicationsCopy\LTC1440.asc
* Generated by LTspice 24.1.9 for Windows.
V1 Vcc 0 PWL(0 0 1m 3.3)
X§U1 N002 N001 Vcc 0 OUT 0 N001 N001 LTC1440
R1 N002 0 1.13Meg
R2 Vcc N002 1.65Meg
.tran 1m
* µPower 2.9V Vcc Threshold Detector
.lib LTC.lib
.backanno
.end
