* C:\Users\adity\AppData\Local\LTspice\examples\ApplicationsCopy\LTC1261LCS8.asc
* Generated by LTspice 24.1.9 for Windows.
C1 N002 N004 .1µ
V1 IN 0 5
C2 OUT 0 3.3µ
R1 IN N003 3.3K
X§U1 IN N002 N004 0 0 OUT N003 N001 LTC1261LCS8
Rload OUT 0 1K
.tran 1m
.lib LTC1261LCS8.sub
.backanno
.end
