* C:\Users\adity\AppData\Local\LTspice\examples\ApplicationsCopy\LTC1727-2.5.asc
* Generated by LTspice 24.1.9 for Windows.
X§U1 Vcc3 Vcc2.5 VccA 0 N004 _RST N003 N001 LTC1727-2.5
R1 N002 N001 10K
R2 N002 N003 10K
R3 N002 _RST 10K
R4 N002 N004 10K
V1 N002 0 5
V2 VccA 0 PWL(0 0 20u 1.25 4.5 1.25 5 0 5.5 0 6 1.25)
V3 Vcc2.5 0 PWL(0 0 20u 2.5 1.5 0 2 3.3 2.5 2.5 3 0 3.5 0 4 2.5)
V4 Vcc3 0 PWL(0 0 20u 3.3 .5 3.3 1 0 1.5 0 2 3.3)
.tran 10
.lib LTC1727-2.5.sub
.backanno
.end
