* C:\Users\adity\AppData\Local\LTspice\examples\ApplicationsCopy\LTC1843.asc
* Generated by LTspice 24.1.9 for Windows.
V1 N001 0 5
V2 N002 0 PULSE(0 3.3 0 .5m .5m 0 1m)
R1 N001 N003 10K
R2 N001 N004 10K
X§U1 N004 0 N002 N002 N006 N005 N001 N003 LTC1843
.tran 3m
.lib LTC1843.sub
.backanno
.end
