* C:\Users\adity\AppData\Local\LTspice\examples\ApplicationsCopy\LTC1754-3.3.asc
* Generated by LTspice 24.1.9 for Windows.
V1 IN 0 2.6
C1 N001 N002 1µ
C2 OUT 0 10µ
Rload OUT 0 100
X§U1 OUT 0 IN N002 IN N001 LTC1754-3.3
.tran 1m startup
.lib LTC1754-3.3.sub
.backanno
.end
