* C:\Users\adity\AppData\Local\LTspice\examples\ApplicationsCopy\LTC1261CS8-4.5.asc
* Generated by LTspice 24.1.9 for Windows.
C2 N001 N003 0.1µ
V1 IN 0 5
C3 OUT 0 3.3µ
Rload OUT 0 800
R1 IN N002 10k
X§U2 IN N001 N003 0 NC_01 OUT N002 NC_02 LTC1261CS8-4.5
.tran 2m
.lib LTC1261CS8-4.5.sub
.backanno
.end
