* C:\Users\adity\AppData\Local\LTspice\examples\ApplicationsCopy\LTC1844-3.3.asc
* Generated by LTspice 24.1.9 for Windows.
V1 IN 0 PWL(0 0 1 6.5)
R1 OUT 0 22
C1 OUT 0 1µ
X§U1 IN 0 IN OUT LTC1844-3.3
.tran 1
.lib LTC1844-3.3.sub
.backanno
.end
