* C:\Users\adity\AppData\Local\LTspice\examples\ApplicationsCopy\LTC1514-5.asc
* Generated by LTspice 24.1.9 for Windows.
C5 N003 N004 1µ
V2 IN 0 3
C1 OUT 0 100µ
Rload OUT 0 100
X§U1 IN N001 N002 0 N004 N003 IN OUT LTC1514-5
.tran 5m startup
.lib LTC1514-5.sub
.backanno
.end
