* C:\Users\adity\AppData\Local\LTspice\examples\ApplicationsCopy\LTC1643AL-1.asc
* Generated by LTspice 24.1.9 for Windows.
R1 IN1 N001 7m
M§Q1 N001 N002 OUT1 OUT1 IRF7413
R2 N002 N005 10
R3 N006 N005 100
M§Q2 N003 N004 OUT2 OUT2 IRF7413
R4 N004 N005 10
R5 IN2 N003 5m
C1 N006 0 0.047µ
V1 IN1 0 PULSE(0 5 5m 5m 5m 250m 300m)
V2 IN2 0 PULSE(0 3.3 5m 5m 5m 250m 300m)
V3 IN3 0 PULSE(0 12 5m 5m 5m 400m 450m)
V4 IN4 0 PULSE(0 -12 5m 5m 5m 400m 450m)
V5 N007 0 PWL(0 3.3 40m 3.3 +1u 0)
V6 N011 0 12
R6 N009 N011 10K
C2 OUT2 0 30µ Rser=10m
C3 OUT3 0 10µ Rser=10m
C4 OUT4 0 10µ Rser=10m
C5 N008 0 0.1µ
C6 OUT1 0 30µ Rser=10m
R7 N010 N011 10K
X§U1 IN3 IN4 OUT2 N008 N007 N009 N010 0 IN2 N003 N005 N001 IN1 OUT1 OUT4 OUT3 LTC1643AL-1
R8 OUT1 0 2
R9 OUT2 0 0.87
R10 OUT3 0 30
R11 OUT4 0 150
.model NMOS NMOS
.model PMOS PMOS
.lib C:\Users\adity\AppData\Local\LTspice\lib\cmp\standard.mos
.tran 550m
.lib LTC1643AL-1.sub
.backanno
.end
