* C:\Users\adity\AppData\Local\LTspice\examples\ApplicationsCopy\LTC1911-1.8.asc
* Generated by LTspice 24.1.9 for Windows.
C1 N004 N005 1µ
C2 N002 N003 1µ
C3 OUT 0 10µ
Rload OUT 0 18
V1 IN 0 4
C4 0 N001 .01µ
X§U1 IN N002 N003 0 N005 OUT N004 N001 LTC1911-1.8
.tran 8m startup
.lib LTC1911-1.8.sub
.backanno
.end
