* C:\Users\adity\AppData\Local\LTspice\examples\ApplicationsCopy\LTC1165.asc
* Generated by LTspice 24.1.9 for Windows.
V1 N001 0 3.3
V2 N002 0 PULSE(0 3 0 100n 100n 2.5m 5m)
V3 N005 0 PULSE(0 3 0 100n 100n 2.5m 5m)
R1 P001 0 10
R2 N007 0 10
V4 N008 0 PULSE(0 3 0 100n 100n 2.5m 5m)
M§Q1 N001 N003 N004 N004 Si4866DY
R3 N004 0 10
M§Q2 N001 N006 N007 N007 Si4866DY
M§Q3 N001 N009 P001 P001 Si4866DY
X§U1 N002 N005 N008 0 N009 N006 N003 N001 LTC1165
.model NMOS NMOS
.model PMOS PMOS
.lib C:\Users\adity\AppData\Local\LTspice\lib\cmp\standard.mos
.tran 20m startup
.lib LTC1165.sub
.backanno
.end
