* C:\Users\adity\AppData\Local\LTspice\examples\ApplicationsCopy\LTC1726-5.asc
* Generated by LTspice 24.1.9 for Windows.
V1 N001 0 PULSE(1.2 0 4.5 .5 .5 .5)
V2 N003 0 PULSE(5 0 .5 .5 .5 .5)
V3 N002 0 PULSE(3.3 0 2.5 0.5 0.5 0.5)
V4 N007 0 5
R3 N007 N006 10K
C1 N005 0 47n
C2 N008 0 100n
V6 N009 0 PULSE(0 2 1m 1u 1u 50u 800m 9)
R1 N001 N004 56K
R2 N004 0 300K
X§U1 N002 N003 N004 0 N009 N006 N008 N005 LTC1726-5
.tran 10
.lib LTC1726-5.sub
.backanno
.end
