* C:\Users\adity\AppData\Local\LTspice\examples\ApplicationsCopy\LTC1574-3.3.asc
* Generated by LTspice 24.1.9 for Windows.
V1 IN 0 9
L1 N001 OUT 100µ Rser=0.02 Rpar=5000
C2 OUT 0 100µ Rser=0.02
X§U1 OUT MP_01 MP_02 0 N001 IN IN IN LTC1574 top=51K bot=31.5K
Rload OUT 0 10
.tran 3m startup
.lib LTC1574.sub
.backanno
.end
