* C:\Users\adity\AppData\Local\LTspice\examples\ApplicationsCopy\LTC1517-3.3.asc
* Generated by LTspice 24.1.9 for Windows.
C2 N002 N001 .1µ
C1 OUT 0 6.8µ
V1 IN 0 3
Rload OUT 0 500
X§U1 IN 0 OUT N002 N001 LTC1517-3.3
.tran 2m startup
.lib LTC1517-3.3.sub
.backanno
.end
