* C:\Users\adity\AppData\Local\LTspice\examples\ApplicationsCopy\LTC1844-SD.asc
* Generated by LTspice 24.1.9 for Windows.
V1 IN 0 PWL(0 0 1 6.5)
Rload OUT 0 34
C1 OUT 0 1µ
X§U1 IN 0 IN N001 OUT LTC1844-SD
R2 OUT N001 301k
R3 N001 0 100k
.tran 1
.lib LTC1844-SD.sub
.backanno
.end
