* C:\Users\adity\AppData\Local\LTspice\examples\ApplicationsCopy\LTC1551CS8-4.1.asc
* Generated by LTspice 24.1.9 for Windows.
V1 IN 0 4.5
C1 N003 N002 .1µ
C2 N001 0 .1µ
C3 OUT 0 10µ
Rload OUT 0 1K
X§U1 0 IN N002 OUT N003 0 N001 OUT LTC1551CS8-4.1
.tran 1.5m
.lib LTC1551CS8-4.1.sub
.backanno
.end
