* C:\Users\adity\AppData\Local\LTspice\examples\ApplicationsCopy\LTC1515-3.3.asc
* Generated by LTspice 24.1.9 for Windows.
V1 IN 0 3
R1 IN N001 5K
C1 N002 N003 1µ
C2 OUT 0 10µ
Rload OUT 0 100
X§U1 IN N001 0 0 N003 N002 IN OUT LTC1515-3.3
.tran 2.5m startup
.lib LTC1515-3.3.sub
.backanno
.end
