* C:\Users\adity\AppData\Local\LTspice\examples\ApplicationsCopy\LTC1844-2.5.asc
* Generated by LTspice 24.1.9 for Windows.
V1 IN 0 PWL(0 0 1 6.5)
R1 OUT 0 17
C1 OUT 0 1µ
X§U1 IN 0 IN OUT LTC1844-2.5
.tran 1
.lib LTC1844-2.5.sub
.backanno
.end
