* C:\Users\adity\AppData\Local\LTspice\examples\ApplicationsCopy\LTC1625.asc
* Generated by LTspice 24.1.9 for Windows.
M§Q1 IN N002 N004 N004 Si4410DY
M§Q2 N004 N010 0 0 Si4410DY
D1 N009 N006 1N5818
L1 N004 OUT 6µ
D2 0 N004 1N5818
C1 OUT 0 500µ Rser=.05
R1 N008 N007 10K
C2 N007 0 2200p
C3 N003 0 .01µ
V1 IN 0 6
C4 N004 N006 .22µ
C5 N009 0 4.7µ
Rload OUT 0 2
X§U1 N001 0 N003 N005 N008 0 OUT 0 0 N010 N009 N006 N002 N004 IN IN LTC1625
.model D D
.lib C:\Users\adity\AppData\Local\LTspice\lib\cmp\standard.dio
.model NMOS NMOS
.model PMOS PMOS
.lib C:\Users\adity\AppData\Local\LTspice\lib\cmp\standard.mos
.tran 8m startup
.lib LTC1625.sub
.backanno
.end
