* C:\Users\adity\AppData\Local\LTspice\examples\ApplicationsCopy\LTC1844-1.8.asc
* Generated by LTspice 24.1.9 for Windows.
V1 IN 0 PWL(0 0 1 6.5)
X§U1 IN 0 IN OUT LTC1844-1.8
R1 OUT 0 12
C1 OUT 0 1µ
.tran 1
.lib LTC1844-1.8.sub
.backanno
.end
