* C:\Users\adity\AppData\Local\LTspice\examples\ApplicationsCopy\LTC1261CS8.asc
* Generated by LTspice 24.1.9 for Windows.
C2 N001 N003 0.1µ
V1 IN 0 5
C3 OUT 0 3.3µ
Rload OUT 0 800
R1 IN N002 10k
X§U1 IN N001 N003 0 N004 OUT N002 NC_01 LTC1261CS8
R2 OUT N004 10k
R3 N004 0 22.3k
C1 N004 0 100p
.tran 2m
.lib LTC1261CS8.sub
.backanno
.end
