* C:\Users\adity\AppData\Local\LTspice\examples\ApplicationsCopy\LTC1053.asc
* Generated by LTspice 24.1.9 for Windows.
V1 +V 0 5
V2 -V 0 -5
R1 N002 N001 499
R2 N001 0 100K
V3 IN- IN+ SINE(0 1m 100)
X§U1 IN- N001 +V -V N002 LTC1052
R3 N003 N002 499
R4 OUT N003 100K
X§U2 IN+ N003 +V -V OUT LTC1052
V4 IN+ 0 SINE(0 1 10)
.tran .3
* High Performance Low Cost Instrumentation Amplifier
.lib LTC.lib
.backanno
.end
