* C:\Users\adity\AppData\Local\LTspice\examples\ApplicationsCopy\LTC2935-3.asc
* Generated by LTspice 24.1.9 for Windows.
V1 N001 0 PWL(0 0 3.6 3.6 16 3.6 19.6 0 20.1 0 23.7 3.6)
R1 N001 N002 10K
R2 N001 N003 10K
X§U1 0 0 0 0 N003 N002 N004 N001 LTC2935-3
M§Q1 N004 N005 0 0 BSS123
V2 N005 0 PWL(0 0 9.499 0 9.5 5 10.5 5 10.501 0)
.model NMOS NMOS
.model PMOS PMOS
.lib C:\Users\adity\AppData\Local\LTspice\lib\cmp\standard.mos
.tran 20
.lib LTC2935-3.sub
.backanno
.end
