* C:\Users\adity\AppData\Local\LTspice\examples\ApplicationsCopy\LTC2960-1.asc
* Generated by LTspice 24.1.9 for Windows.
Vbat IN 0 PWL(0 0 20 9 40 0)
R1 IN N001 10Meg
R2 OUT _LOWBAT 1Meg
R3 IN N003 5.11Meg
R4 N003 N004 49.9K
R5 N004 0 348K
R6 IN N002 10K
X§U1 N002 N002 _LOWBAT N001 0 N002 N004 N003 LTC2960-1
X§U2 IN OUT OUT 0 N001 LT3008-3.3
C1 OUT 0 1µ
* Configurable Regulator UVLO and Low Battery Indicator
* 6V to 8.4V
.tran 40
.lib LT3009.lib
.lib LTC2960-1.sub
.backanno
.end
