* C:\Users\adity\AppData\Local\LTspice\examples\ApplicationsCopy\LTC2903-D1.asc
* Generated by LTspice 24.1.9 for Windows.
X§U1 V1 0 V2 V3 V4 _RST LTC2903-D1
V1 V1 0 PULSE(0 3.3 0 100n 100n 250m 500m)
R1 _RST V1 10K
R5 V2 N002 36.5K
R2 V2 0 10K
V2 N002 0 PULSE(0 2.5 0 100n 100n 250m 500m)
R3 V3 0 10K
R4 V4 0 10K
V3 N003 0 PULSE(0 1.8 0 100n 100n 250m 500m)
V4 N001 0 PULSE(0 1.2 0 100n 100n 250m 500m)
R6 N003 V3 23.7K
R7 N001 V4 12.4K
.tran 1
.lib LTC2903-D1.sub
.backanno
.end
