* C:\Users\adity\AppData\Local\LTspice\examples\ApplicationsCopy\LTC2953-2.asc
* Generated by LTspice 24.1.9 for Windows.
V1 IN 0 8.4
R1 IN N003 2150K
R2 N003 N008 23.2K
R3 N008 0 196K
C1 OUT 0 1µ
R4 IN N016 100K
M§Q1 N016 N017 0 0 2N7002
R5 IN N004 100K
R6 N007 0 100K
R7 OUT N007 499K
R8 OUT N010 100K
R9 OUT N013 100K
R10 OUT N015 100K
C2 N014 0 1µ
V2 N012 0 PWL(0 0 2.8 0 2.801 3.3 3 3.3 3.001 0 4 0 4.001 3.3 6 3.3 6.001 0 6.499 0 6.5 3.3 9 3.3 9.001 0 12.999 0 13 3.3 14 3.3 14.001 0 14.499 0 14.5 3.3)
M§Q2 N001 N005 IN IN FDS4435A
R11 N005 N004 100K
V3 N017 0 PWL(0 0 15.999 0 16 5 17 5 17.001 0)
Rload OUT 0 100
M§Q3 N001 N002 OUT OUT IRF530
R14 N002 N006 10
D1 OUT N006 BZX84C15L
C3 N006 0 10n Rser=1K
R12 OUT N011 23K
R13 N011 0 10K
V4 N009 0 1
G1 0 N006 N009 N011 0.01
S1 0 N006 N001 0 SDHN
C4 OUT 0 30µ
X§U1 0 N007 N016 N014 N012 IN N003 N008 N013 N010 N004 N015 LTC2953-2
.model D D
.lib C:\Users\adity\AppData\Local\LTspice\lib\cmp\standard.dio
.model NMOS NMOS
.model PMOS PMOS
.lib C:\Users\adity\AppData\Local\LTspice\lib\cmp\standard.mos
.tran 20 startup
* External LDO "DC/DC"
.model SDHN SW(Ron=1G Roff=0.1 Vt=0.5 Vh=-0.1)
.lib LTC2953-2.sub
.backanno
.end
