* C:\Users\adity\AppData\Local\LTspice\examples\ApplicationsCopy\LTC2954-1.asc
* Generated by LTspice 24.1.9 for Windows.
R1 IN N001 100K
C1 N005 0 10n
C2 N006 0 10n
V1 N002 0 PWL(0 3.3 5 3.3 5.001 0 6 0 6.001 3.3 7 3.3 7.001 0 8 0 8.001 3.3 8.5 3.3 8.501 0 9.5 0 9.501 3.3 11 3.3 11.001 0 11.75 0 11.751 3.3)
V2 IN 0 PWL(0 0 3 6)
R2 IN N003 10K
X§U1 N003 N005 N001 IN N002 0 N004 N006 LTC2954-1
R3 OUT N004 100K
V3 N007 0 PWL(0 0 9.999 0 10 5 11 5 11.001 0)
X§U2 OUT OUT MP_01 0 N001 MP_02 MP_03 IN LT3010-5
C3 OUT 0 1µ
R4 OUT 0 100
M§Q1 N004 N007 0 0 NMOS
.model NMOS NMOS
.model PMOS PMOS
.lib C:\Users\adity\AppData\Local\LTspice\lib\cmp\standard.mos
.tran 15
.lib LT3010.lib
.lib LTC2954-1.sub
.backanno
.end
