* C:\Users\adity\AppData\Local\LTspice\examples\ApplicationsCopy\LTC2960-3.asc
* Generated by LTspice 24.1.9 for Windows.
R1 IN N002 825K
R2 N002 0 80.6K
R3 OUT N003 6.04Meg
R4 N003 0 1Meg
Vbat IN 0 PWL(0 0 20 28 40 0)
X§U1 IN OUT OUT 0 IN LT3008-3.3
X§U2 OUT OUT _UV N001 0 N001 N003 N002 LTC2960-3
C2 OUT 0 22µ
* Automotive Supervisor (H-Grade)
* 12V
* 3.3V
.tran 40
.lib LT3009.lib
.lib LTC2960-3.sub
.backanno
.end
