* C:\Users\adity\AppData\Local\LTspice\examples\ApplicationsCopy\LTC2900-1.asc
* Generated by LTspice 24.1.9 for Windows.
X§U1 IN3 IN1 N004 OUT N005 0 N003 N002 IN4 IN2 LTC2900-1
R1 N002 IN4 121K
R2 N006 IN4 464K
C1 N004 0 .001µ
V1 N005 0 PWL(0 0 1m 5 14 5 14.001 0 15.001 0 15.002 5)
V2 N006 0 PWL(0 0 1m -5 11 -5 12 -4 13 -4 14 -5)
R3 N001 IN3 2150K
R4 IN3 0 100K
V3 N001 0 PWL(0 0 1m 12 8 12 9 10 10 10 11 12)
R5 OUT 0 1Meg
V4 IN2 0 PWL(0 0 1m 3.3 5 3.3 6 3 7 3 8 3.3)
V5 IN1 0 PWL(0 0 1m 5 2 5 3 4 4 4 5 5)
R6 N002 N003 93.1K
R7 N003 0 9.53K
.tran 16 startup
.lib LTC2900-1.sub
.backanno
.end
