* C:\Users\adity\AppData\Local\LTspice\examples\ApplicationsCopy\LTC2909-5.asc
* Generated by LTspice 24.1.9 for Windows.
V1 N002 0 PWL (0,0 10m,12)
V2 N001 0 PULSE(2.5 5 0 1000m 1000m 3000m 5000m)
R1 N005 N001 57.6K
R2 N005 N003 1.1K
R3 N003 0 10K
I1 REF 0 PWL(0 0 1 0 1.001 1m 2 1m 2.001 -1m 3 -1m 4 -5m 4.001 -5m 5 5m)
C1 0 N004 22n
C2 0 _RST 1000p
R4 N001 _RST 10K
V3 N006 0 PWL(0 0 5010m 0 5011m 0.9 10010m 0.9 10011m 5)
X§U1 0 REF N003 N005 N006 N004 N002 _RST LTC2909-5
.tran 15
.lib LTC2909-5.sub
.backanno
.end
