* C:\Users\adity\AppData\Local\LTspice\examples\ApplicationsCopy\LTC2906.asc
* Generated by LTspice 24.1.9 for Windows.
V1 V1 0 3.3
V2 N001 0 PWL(0 0 1m .8)
R1 N002 _RST 100K
V3 N002 0 5
X§U1 0 _RST RST V1 V1 Vadj NC_01 NC_02 LTC2906
R2 N001 Vadj 49.9K
R3 Vadj 0 100K
C2 Vadj 0 .1µ
R4 N002 RST 100K
.tran 300m
.lib LTC2906.sub
.backanno
.end
