* C:\Users\adity\AppData\Local\LTspice\examples\ApplicationsCopy\LTC2903-C1.asc
* Generated by LTspice 24.1.9 for Windows.
X§U1 V1 0 V2 V3 V4 _RST LTC2903-C1
V1 V1 0 PULSE(0 5 0 100n 100n 250m 500m)
V2 V2 0 PULSE(0 3.3 0 100n 100n 250m 500m)
V3 V3 0 PULSE(0 1.8 0 100n 100n 250m 500m)
V4 V4 0 PULSE(0 -5.2 0 100n 100n 250m 500m)
R1 _RST V1 10K
.tran 1
.lib LTC2903-C1.sub
.backanno
.end
