* C:\Users\adity\AppData\Local\LTspice\examples\ApplicationsCopy\LTC2960-2.asc
* Generated by LTspice 24.1.9 for Windows.
R1 N002 N007 100K
R2 OUT _RESET 10Meg
R3 IN N006 5.6Meg
R4 N006 0 402K
C1 OUT 0 1µ
R5 OUT N005 6.04Meg
R6 N005 0 402K
Vbat IN 0 PWL(0 0 200 9 400 0 400.001 -3)
R7 N001 N002 1Meg
D1 N002 N001 BZX84C15L
M§Q1 OUT N002 N001 N001 PMOS
M§Q2 IN N002 N001 N001 PMOS
R8 IN N003 10K
X§U1 N003 0 _RESET N007 0 N004 N005 N006 LTC2960-2
.model D D
.lib C:\Users\adity\AppData\Local\LTspice\lib\cmp\standard.dio
.model NMOS NMOS
.model PMOS PMOS
.lib C:\Users\adity\AppData\Local\LTspice\lib\cmp\standard.mos
* Prevention of Excessive Battery Drain in Low Battery Conditions
* 6V to 8.4V
.tran 400
.lib LTC2960-2.sub
.backanno
.end
