* C:\Users\adity\AppData\Local\LTspice\examples\ApplicationsCopy\LTC2908-A1.asc
* Generated by LTspice 24.1.9 for Windows.
V1 V1 0 PWL(0 0 1m 5)
V2 N002 0 PWL(0 0 1m 12)
R1 N005 _RST 100K
V3 N005 0 5
R2 N002 N003 2.15Meg
R3 N003 0 100K
X§U1 0 _RST V4 V2 V1 N003 V3 N004 LTC2908-A1
V4 V2 0 PWL(0 0 1m 3.3)
V5 V3 0 PWL(0 0 1m 2.5)
V6 V4 0 PWL(0 0 1m 1.8)
R4 N001 N004 86.6K
R5 N004 0 100K
V7 N001 0 PWL(0 0 1m 1)
.tran 300m
.lib LTC2908-A1.sub
.backanno
.end
