* C:\Users\adity\AppData\Local\LTspice\examples\ApplicationsCopy\LTC2902-1.asc
* Generated by LTspice 24.1.9 for Windows.
X§U1 Comp3 Comp1 IN3 IN1 N003 0 0 N001 0 _RESET N002 N002 IN4 IN2 Comp4 Comp2 LTC2902-1
V1 IN1 0 PWL(0 0 1m 5.0 1 5.0 2 4.1 3 4.1 4 5.0)
V2 IN2 0 PWL(0 0 1m 3.0 5 3.0 6 2.5 7 2.5 8 3.0)
V3 IN3 0 PWL(0 0 1m 1.8 9 1.8 10 1.5 11 1.5 12 1.8)
V4 IN4 0 PWL(0 0 1m 0.7 13 0.7 14 0.4 15 0.4 16 0.7)
C1 N003 0 100p
V5 N001 0 5
.tran 16 startup
.lib LTC2902-1.sub
.backanno
.end
