* C:\Users\adity\AppData\Local\LTspice\examples\ApplicationsCopy\LTC2387-16.asc
* Generated by LTspice 24.1.9 for Windows.
V3 N008 0 PULSE(0 1.8 100n .2n .2n 9.8n 100n)
V4 N001 0 4.096
V5 N002 0 5
V1 N003 0 PWL(0 0 100u 5)
R1 N004 N003 10
V2 N007 0 PWL(0 5 100u 0)
R2 N006 N007 10
C1 0 N005 10p
X§U1 N004 N002 0 N005 N001 N008 N006 LTC2387-16
.tran 110u
.lib LTC2387-16.sub
.backanno
.end
