* C:\Users\adity\AppData\Local\LTspice\examples\ApplicationsCopy\LTC3302C-05.asc
* Generated by LTspice 24.1.9 for Windows.
L1 N003 OUT 330n Rser=2m
R1 OUT N004 47.5K
V1 IN 0 4
R2 N004 0 18.2K
C1 OUT 0 10µ m=2 Rser=10m
R3 OUT N002 500K
C3 OUT N004 10p
Rload OUT 0 0.9
C2 N001 0 1µ
X§U1 IN N001 N003 N004 0 0 N001 N002 N001 LTC3302C-05
.tran 1.5m startup
.lib LTC3302C-05.sub
.backanno
.end
