* C:\Users\adity\AppData\Local\LTspice\examples\ApplicationsCopy\LTC3722-1.asc
* Generated by LTspice 24.1.9 for Windows.
M§Q1 IN N004 N007 N007 Si7852DP m=2
X§U2 N001 0 A N007 N004 N002 LTC4440
C1 N002 N007 .22µ
D1 N001 N002 GSD2004W-V
M§Q2 N007 N014 N016 N016 Si7852DP m=2
Q3 N001 B N014 0 2N4401
Q4 0 B N014 0 2N4403
M§Q5 IN N005 N008 N008 Si7852DP m=2
X§U3 N001 0 C N008 N005 N003 LTC4440
C2 N003 N008 .22µ
D2 N001 N003 GSD2004W-V
M§Q6 N008 N015 N016 N016 Si7852DP m=2
Q7 N001 D N015 0 2N4401
Q8 0 D N015 0 2N4403
R1 N016 0 10m
C3 N019 0 100p
R2 N019 N016 510
L1 N008 N007 50µ Rser=3.25m Rpar=5K
L2 N011 N009 32µ Rser=1m Rpar=2K
M§Q9 N011 N017 0 0 Si7852DP m=4
L4 N009 OUT 2.4µ Rser=2m Rpar=1K
C4 OUT 0 1000µ Rser=5m
Q10 N001 N013 N017 0 2N4401
Q11 0 N013 N017 0 2N4403
M§Q12 N009 N023 0 0 Si7852DP m=4
Q13 N001 N021 N023 0 2N4401
Q14 0 N021 N023 0 2N4403
R3 OUT N025 3.15K
R4 N025 0 1K
C5 N027 N025 .15µ Rser=5K
V1 IN 0 48
C6 N026 0 180p
C7 N028 0 .001µ
R5 0 N020 30K
R6 N018 N022 60K
R7 N024 0 10K
R8 N001 N010 150
C8 N010 0 1µ
R9 0 N012 4.99K
R13 IN N006 182K
R14 N006 0 30.1K
R15 N018 N012 80.6K
V2 N001 0 12
Rload OUT 0 .25
L3 N011 OUT 2.4µ Rser=2m Rpar=1K
V3 N029 0 PULSE(0 3.3 0 10n 10n 1.25u 2.5u)
R10 SYNC N029 1K
R11 SYNC 0 5.1K
X§U4 SYNC N022 N019 N027 N024 N025 N028 MP_01 N012 N018 N012 N006 N020 N018 N013 N021 C N010 D B A 0 0 N026 LTC3722-1
.model D D
.lib C:\Users\adity\AppData\Local\LTspice\lib\cmp\standard.dio
.model NPN NPN
.model PNP PNP
.lib C:\Users\adity\AppData\Local\LTspice\lib\cmp\standard.bjt
.model NMOS NMOS
.model PMOS PMOS
.lib C:\Users\adity\AppData\Local\LTspice\lib\cmp\standard.mos
K1 L1 L2 .99
.tran 750u startup
.lib LTC3722-1.sub
.lib LTC4440.sub
.backanno
.end
