* C:\Users\adity\AppData\Local\LTspice\examples\ApplicationsCopy\LTC3303C.asc
* Generated by LTspice 24.1.9 for Windows.
L1 N003 OUT 150n Rser=2m
V1 IN 0 5
C1 OUT 0 10µ m=2 Rser=10m
R4 OUT N002 500K
Rload OUT 0 0.45
C2 N001 0 1µ
R1 IN N001 10
X§U1 IN N001 N003 OUT 0 0 N001 N002 N001 LTC3303C Vout_trim=1.8
.tran 1.5m startup
* The output voltage is adjustable from \n0.5V to 3.65V in 50mV increments.
.lib LTC3303C.sub
.backanno
.end
