* C:\Users\adity\AppData\Local\LTspice\examples\ApplicationsCopy\LTC3644-2.asc
* Generated by LTspice 24.1.9 for Windows.
V1 IN 0 12
C1 N001 0 4.7µ
L1 N002 OUT1 1µ
C2 OUT1 0 47µ
R1 OUT1 0 2
C3 OUT1 N004 22p Rpar=619K
R2 N004 0 196K
L2 N006 OUT2 2.2µ
C4 OUT2 0 47µ
R3 OUT2 0 2.7
C5 OUT2 N008 22p Rpar=619K
R4 N008 0 137K
L3 N003 OUT3 1µ
C6 OUT3 0 47µ
R5 OUT3 0 1.4
C7 OUT3 N005 10p Rpar=619K
R6 N005 0 309K
L4 N007 OUT4 3.3µ
C8 OUT4 0 47µ
R7 OUT4 0 4
C9 OUT4 N009 22p Rpar=619K
R8 N009 0 84.5K
X§U1 0 N001 IN IN IN IN IN 0 MP_01 0 N002 N004 N006 N008 N003 N005 N007 N009 NC_02 NC_03 NC_04 NC_05 IN IN IN IN LTC3644-2
.tran 1.2m startup
.lib LTC3644-2.sub
.backanno
.end
