* C:\Users\adity\AppData\Local\LTspice\examples\ApplicationsCopy\LTC3704.asc
* Generated by LTspice 24.1.9 for Windows.
M§Q1 N003 N006 0 0 Si4410DY
R1 N008 0 80K
R2 N007 0 1.21K
R3 OUT N007 3.65K
D1 N002 0 1N5818
C1 0 OUT 100µ x2 Rser=50m
R4 N005 N004 3K
C2 N004 0 .0047µ
Rload OUT 0 2
V1 IN 0 10
C3 N001 0 4.7µ
X§U1 IN N005 N007 N008 0 0 N006 N001 IN N003 LTC3704
L1 IN N003 5µ
L2 OUT N002 5µ
.model D D
.lib C:\Users\adity\AppData\Local\LTspice\lib\cmp\standard.dio
.model NMOS NMOS
.model PMOS PMOS
.lib C:\Users\adity\AppData\Local\LTspice\lib\cmp\standard.mos
.tran 1m startup
K1 L1 L2 1
.lib LTC3704.sub
.backanno
.end
