* C:\Users\adity\AppData\Local\LTspice\examples\ApplicationsCopy\LTC3306A.asc
* Generated by LTspice 24.1.9 for Windows.
L1 N001 OUT 1µ Rser=2m
V1 IN 0 5
C2 OUT 0 22µ
Rload OUT 0 0.6857
X§U1 IN IN N001 OUT 0 NC_01 LTC3306A Vout=1.2
.tran 1.2m startup
* The output voltage is adjustable from \n0.5V to 3.65V in 50mV increments.\n \nTo use external resistors, please set Vout to 0.5V
.lib LTC3306A.sub
.backanno
.end
