* C:\Users\adity\AppData\Local\LTspice\examples\ApplicationsCopy\LTC3410B-1.2.asc
* Generated by LTspice 24.1.9 for Windows.
V1 IN 0 5
L1 N001 OUT 4.7µ
Rload OUT 0 20
C1 OUT 0 4.7µ
X§U1 IN 0 N001 IN MP_01 OUT LTC3410B-x.x top=180K bot=360K
.tran 250u startup
.lib LTC3410B-x.x.sub
.backanno
.end
