* C:\Users\adity\AppData\Local\LTspice\examples\ApplicationsCopy\LTC3200-5.asc
* Generated by LTspice 24.1.9 for Windows.
C1 N002 N001 1µ
C2 OUT 0 1µ
Rload OUT 0 50
V1 IN 0 3
X§U1 OUT 0 IN N001 IN N002 LTC3200-5
.tran 1m startup
.lib LTC3200-5.sub
.backanno
.end
