* C:\Users\adity\AppData\Local\LTspice\examples\ApplicationsCopy\LTC3221-3.3.asc
* Generated by LTspice 24.1.9 for Windows.
C1 N001 N002 1µ
V1 IN 0 2.5
C2 OUT 0 4.7µ
Rload OUT 0 55
X§U1 N001 N002 IN 0 IN OUT LTC3221-3.3
.tran 1m startup
.lib LTC3221-3.3.sub
.backanno
.end
