* C:\Users\adity\AppData\Local\LTspice\examples\ApplicationsCopy\LTC3314A.asc
* Generated by LTspice 24.1.9 for Windows.
L1 N004 OUT1 220n Rser=2m
R1 OUT1 N005 140K
V1 IN 0 3.3
R2 N005 0 100K
C1 OUT1 0 33µ
C3 OUT1 N005 10p
Rload1 OUT1 0 0.3
R3 OUT1 N001 500K
L2 N008 OUT2 330n Rser=2m
R4 OUT2 N009 107K
R5 N009 0 41.2K
C2 OUT2 0 33µ
C4 OUT2 N009 10p
Rload2 OUT2 0 0.45
R6 OUT2 N006 500K
C5 IN 0 10µ
C6 IN 0 10µ
C7 N003 0 1µ
C8 OUT1 0 33µ
C9 OUT2 0 33µ
X§U1 IN N003 N004 N005 0 0 N003 N001 N003 N003 N003 IN N008 N009 N006 N002 N007 LTC3314A
C10 N002 N004 22n
C11 N007 N008 22n
.tran 3m startup
.lib LTC3314A.sub
.backanno
.end
