* C:\Users\adity\AppData\Local\LTspice\examples\ApplicationsCopy\LTC3548-2.asc
* Generated by LTspice 24.1.9 for Windows.
V1 IN 0 2.8
L1 N002 OUT1 2.2µ
L2 N001 OUT2 4.7µ
R1 N003 0 280K
R2 OUT2 N003 887K
C1 OUT2 N003 68p
X§U1 OUT1 IN IN N002 0 IN N001 MP_01 IN N003 LTC3548-2
C2 OUT2 0 4.7µ
C3 OUT1 0 10µ
Rload1 OUT1 0 2.25
Rload2 OUT2 0 50
.tran 500u startup
.lib LTC3548-2.sub
.backanno
.end
