* C:\Users\adity\AppData\Local\LTspice\examples\ApplicationsCopy\LTC3400B.asc
* Generated by LTspice 24.1.9 for Windows.
L1 IN N001 4.7µ Rser=0.1
R1 OUT N002 1.02Meg
R2 N002 0 604K
V1 IN 0 1.4
C1 OUT 0 4.7µ
X§U1 N001 0 N002 IN OUT IN LTC3400B
Rload OUT 0 25
.tran 200u startup
.lib LTC3400B.sub
.backanno
.end
