* C:\Users\adity\AppData\Local\LTspice\examples\ApplicationsCopy\LTC3406-1.2.asc
* Generated by LTspice 24.1.9 for Windows.
V1 IN 0 5
C1 OUT 0 22µ
L1 N001 OUT 4.7µ
Rload OUT 0 5
X§U1 IN 0 N001 IN OUT LTC3406-x.x top=217K bot=220K
.tran 500u startup
.lib LTC3406-x.x.sub
.backanno
.end
