* C:\Users\adity\AppData\Local\LTspice\examples\ApplicationsCopy\LTC3100.asc
* Generated by LTspice 24.1.9 for Windows.
V1 IN 0 2
R1 OUT1 N002 1.87Meg
R2 N002 0 1.07Meg
C1 OUT1 0 10µ V=6.3 Irms=0 Rser=0 Lser=0 mfg="Murata" pn="GRM188R60J106ME84" type="X5R"
R3 OUT2 N005 2Meg
R4 N005 0 1Meg
C2 OUT2 0 10µ V=4 Irms=0 Rser=0 Lser=0 mfg="Murata" pn="GRM188R60G106ME47" type="X5R"
X§U1 N001 OUT1 OUT3 N004 OUT1 N007 0 IN N005 IN N006 N002 0 IN N003 IN LTC3100
L1 IN N001 3.3µ Rser=5m
R5 OUT1 N003 1Meg
L2 N004 OUT2 4.7µ Rser=5m
R6 OUT2 N007 1Meg
R7 OUT3 N006 102K
R8 N006 0 25.5K
C3 OUT3 0 2.2µ V=6.3 Irms=0 Rser=0 Lser=0 mfg="Murata" pn="GRM155R60J225ME15" type="X5R"
Rload1 OUT1 0 33
Rload2 OUT2 0 9
Rload3 OUT3 0 60
.tran 3m startup
.lib LTC3100.sub
.backanno
.end
