* C:\Users\adity\AppData\Local\LTspice\examples\ApplicationsCopy\LTC3406B-1.8.asc
* Generated by LTspice 24.1.9 for Windows.
V1 IN 0 5
C1 OUT 0 22µ
L1 N001 OUT 4.7µ
Rload OUT 0 3
X§U1 IN 0 N001 IN OUT LTC3406B-x.x top=360K bot=180K
.tran 500u startup
.lib LTC3406B-x.x.sub
.backanno
.end
