* C:\Users\adity\AppData\Local\LTspice\examples\ApplicationsCopy\LTC3204-3.3.asc
* Generated by LTspice 24.1.9 for Windows.
C1 N001 N002 2.2µ
C2 OUT 0 2.2µ
Rload OUT 0 100
V1 IN 0 2.4
X§U1 0 IN OUT N001 N002 IN LTC3204-3.3
.tran 1m startup
.lib LTC3204-3.3.sub
.backanno
.end
