* C:\Users\adity\AppData\Local\LTspice\examples\ApplicationsCopy\LTC3831-1.asc
* Generated by LTspice 24.1.9 for Windows.
C1 N011 0 0.022µ
C2 N007 0 0.01µ
R1 N012 N011 1K
M§Q1 IN N005 N003 N003 Si4410DY
M§Q2 N003 N008 0 0 Si4410DY
R2 N003 N006 1K
R3 IN N004 4.7K
D1 N001 N002 MBR0520L
C3 N003 N002 0.1µ
L1 N003 OUT 1.3µ Rser=1m
C4 OUT 0 180µ Rser=10m
V1 N001 0 5
V2 IN 0 2.5
C5 N012 0 68p
Rload OUT 0 5
X§U2 N005 N002 0 0 0 OUT IN N010 N007 N012 N009 N004 N006 N001 N001 N008 LTC3831-1
.model D D
.lib C:\Users\adity\AppData\Local\LTspice\lib\cmp\standard.dio
.model NMOS NMOS
.model PMOS PMOS
.lib C:\Users\adity\AppData\Local\LTspice\lib\cmp\standard.mos
.tran 1.5m startup
.lib LTC3831-1.sub
.backanno
.end
