* C:\Users\adity\AppData\Local\LTspice\examples\ApplicationsCopy\LTC3312SA.asc
* Generated by LTspice 24.1.9 for Windows.
L1 N003 OUT1 220n Rser=2m
R1 OUT1 N004 140K
V1 IN 0 3.3
R2 N004 0 100K
C1 OUT1 0 47µ
C3 OUT1 N004 10p
Rload1 OUT1 0 0.2
R3 OUT1 N002 500K
L2 N006 OUT2 330n Rser=2m
R4 OUT2 N007 107K
R5 N007 0 41.2K
C2 OUT2 0 47µ
C4 OUT2 N007 10p
Rload2 OUT2 0 0.3
R6 OUT2 N005 500K
C5 IN 0 10µ
C6 IN 0 10µ
C7 N001 0 1µ
C8 OUT1 0 47µ
C9 OUT2 0 47µ
X§U2 IN N001 N003 N004 0 0 N001 N002 N001 N001 N001 IN N006 N007 N005 N001 N001 LTC3312SA
.tran 3m startup
.lib LTC3312SA.sub
.backanno
.end
