* C:\Users\adity\AppData\Local\LTspice\examples\ApplicationsCopy\LTC3631-3.3.asc
* Generated by LTspice 24.1.9 for Windows.
V1 IN 0 36
L1 N001 OUT 100µ
C1 OUT 0 10µ
Rload OUT 0 33
X§U1 N001 IN NC_01 NC_02 IN OUT NC_03 0 LTC3631-3.3
.tran 1.5m startup
.lib LTC3631-3.3.sub
.backanno
.end
