* C:\Users\adity\AppData\Local\LTspice\examples\ApplicationsCopy\LTC3336.asc
* Generated by LTspice 24.1.9 for Windows.
V1 IN 0 7.2
C1 IN 0 0.1µ
L1 N002 OUT 33µ Rser=0.2
C2 OUT 0 100µ
RLoad OUT 0 10
X§U1 IN N001 N002 OUT NC_01 N001 N001 N001 0 0 N001 0 0 LTC3336
.tran 7m startup
.lib LTC3336.sub
.backanno
.end
