* C:\Users\adity\AppData\Local\LTspice\examples\ApplicationsCopy\LTC3602.asc
* Generated by LTspice 24.1.9 for Windows.
X§U1 N007 N001 N004 N008 N007 IN N006 0 MP_01 MP_02 N005 MP_03 MP_04 N003 IN N002 0 LTC3602
V1 IN 0 5
R1 N004 0 105K
C1 N008 0 1n Rser=4.32K
C2 N002 0 1µ
D1 N002 N003 CMDSH2-3
C3 N003 N005 .22µ
L1 N005 OUT 2.2µ Rpar=2K
R3 OUT N007 475K
R4 N007 0 105K
C4 OUT N007 22p
C5 OUT 0 100µ
Rload OUT 0 1.3
.model D D
.lib C:\Users\adity\AppData\Local\LTspice\lib\cmp\standard.dio
.tran 1.2m startup
.lib LTC3602.sub
.backanno
.end
