* C:\Users\adity\AppData\Local\LTspice\examples\ApplicationsCopy\LTC3620-1.asc
* Generated by LTspice 24.1.9 for Windows.
V1 IN 0 3.6
L1 N001 OUT 22µ Rpar=10K
C1 OUT 0 1µ
Rload OUT 0 100
X§U1 N001 0 0 NC_01 MP_02 OUT IN IN LTC3620-1
.tran 1m startup
.lib LTC3620-1.sub
.backanno
.end
