* C:\Users\adity\AppData\Local\LTspice\examples\ApplicationsCopy\LTC3304A-05.asc
* Generated by LTspice 24.1.9 for Windows.
L1 N003 OUT 220n Rser=2m
R1 OUT N004 140K
V1 IN 0 5
R2 N004 0 100K
C1 OUT 0 22µ m=3 Rser=10m
R4 OUT N002 500K
C3 OUT N004 10p
Rload OUT 0 0.2
C2 N001 0 1µ
R3 IN N001 10
X§U2 IN N001 N003 N004 0 0 N001 N002 N001 LTC3304A-05
.tran 1.5m startup
.lib LTC3304A-05.sub
.backanno
.end
