* C:\Users\adity\AppData\Local\LTspice\examples\ApplicationsCopy\LTC3306C.asc
* Generated by LTspice 24.1.9 for Windows.
L1 N001 OUT 1µ Rser=2m
V1 IN 0 5
C2 OUT 0 22µ
Rload OUT 0 0.6857
X§U2 IN N002 N001 N003 0 N004 LTC3306C Vout=0.5
R1 IN N002 402k
R2 N002 0 100k
R3 IN N004 100k
C1 OUT N003 33p
R4 OUT N003 20k
R5 N003 0 14.3k
.tran 1.2m startup
* The output voltage is adjustable from \n0.5V to 3.65V in 50mV increments.\n \nTo use external resistors, please set Vout to 0.5V
.lib LTC3306C.sub
.backanno
.end
