* C:\Users\adity\AppData\Local\LTspice\examples\ApplicationsCopy\LTC3884-1.asc
* Generated by LTspice 24.1.9 for Windows.
VIN1 IN 0 12
C3 0 VCC 1µ
C5 N010 0 100p
C9 N013 0 6800p
C18 N009 0 100p
C19 N012 0 6800p
C20 N018 0 1µ
C21 N016 0 1µ
L1 SW1 OUT1 0.215µ Rser=0.35m
C22 OUT1 0 470µ x2 Rser=5m
R12 N007 VCC 1
C23 VCC 0 1µ
C24 N007 0 10µ
X§U3 VCC PWM1 N011 0 SW2 ISNS2 PWM2 N014 N007 IN SW1 0 ISNS1 N008 N008 LTC7050 RTon=5m RBon=1.2m OV=14.8
R17 VCC N008 10K
C25 OUT1 0 47µ x2 Rser=5m
C26 N004 N006 3.3n
R19 N004 N006 150
R20 SW1 N002 43.2K
C27 N002 N004 47p
V3 N006 0 1.5
R21 ISNS1 N004 1m
R22 N015 N018 10K
L2 SW2 OUT2 0.215µ Rser=0.35m
C28 OUT2 0 470µ x2 Rser=5m
R23 OUT2 0 0.035
C29 OUT2 0 47µ x2 Rser=5m
R24 N011 VCC 10K
R25 N014 VCC 10K
R26 N001 SW2 43.2K
C30 N001 N003 47p
V4 N005 0 1.5
R27 ISNS2 N003 1m
C31 N003 N005 3.3n
R28 N003 N005 150
R29 OUT1 0 0.035
R30 N017 N018 10K
X§U1 OUT1 0 N003 N005 N013 N010 N004 N006 NC_01 PWM2 NC_02 PWM1 0 OUT2 0 0 N017 N015 IN VCC NC_03 NC_04 NC_05 NC_06 N016 0 NC_07 N018 N009 N012 LTC3884-1 VIN_ON=5.5 VIN_OFF=5 Vout_0=1 Vout_1=1 Ilim0_range=1 Ilim1_range=1 OC_limit0=1 OC_limit1=1 Mode_ll=1 Fault_response=2 Retry_delay=.1m gm0=3m gm1=3m Rth0=5K Rth1=5K LowDcr=0 Freq=500K PHs_0=0 PHs_1=180 Ton0_delay=.3m Ton0_rise=.5m Ton1_delay=.3m Ton1_rise=.5m Toff0_delay=1m Toff0_fall=2m Toff1_delay=.5m Toff1_fall=1m Vout0_range=1 Vout1_range=1 Sync=0
.tran 1.5m startup
* 1V, 30A
* 1V, 30A
* 7 to 14V
* Please read the following notes carefully since the model behaves differently from the user \ninterface for the LTC3884-1.\n \n(1) PMBus communication and memory address related functions and pins are not modeled.\n \n(2) Changes to parameter values while the simulation is running will not take effect unless the\nsimulation is stopped and restarted. This is different from the way the part operates which will\nrespond to the changes while running.  \n \n(3) Share_clk is not modeled. The default time reference of LTspice is used as the common time \nbase for all time-related parameters.\n \n(4)The following parameters can be defined by right-clicking on the LTC3884-1 symbol.\nThe nomenclature used here differs from the one in the data sheet. If any value of these parameters is\nset beyond the scope described in the data sheet, the resulting simulation will not be meaningful.\n \nVIN_ON & VIN_OFF -- in volts, set the unit start/stop input voltages; \n \nFreq -- in Hz, sets switching frequency as one of values of 250k, 350k, 425k, 500k, 575k, 650k, \n750k,1000k. Freq_cfg pin needs to float or short to VDD25, to make the value be in effect;\n \nPHs_0 & PHs_1 -- in degree, set phase angle related to SYNC signal. \nCertain combinations are restricted as in data sheet. Phase_cfg pin needs to float or \nshort to VDD25, to make the value be in effect;  \n \nTon0_delay & Ton0_rise; Ton1_delay & Ton1_rise -- in sec, set delay and soft-start timers for \nchannel0 and channel1. Initialization time is not modeled; \n \nToff0_delay & Toff0_fall; Toff1_delay & Toff1_fall -- in sec, set delay and soft-off timers for \nchannel0 and channel1;\n \nVout_0 & Vout_1 -- in volt, set output voltages respectively. Vout_cfgn pin needs to float or \nshort to VDD25, to make the value be in effect;\n \nVout0_range & Vout1_range -- set maximum output range, with value 0\nfor 4.096V (CH0) and 5.5V (CH1), value 1 for 2.75V;\n \nIlim0_range & Ilim1_range -- set maximum sensed peak current range, with value 0\nfor low (45.14mV), and 1 for high (81.25mV);\n \nOC_limit0 & OC_limit1 -- set ratio of peak current limit to the maximum value defined by Ilimit_range. \nIt must be one of values: 0.5, 0.572, 0.642, 0.714, 0.786, 0.858, 0.928, 1;\n \nMode_II -- sets light load operation mode: 0 for discontinuous, 1 for forced continuous;\n \nFault_response -- sets the response mode of the LTC3884-1 to occuring faults:\n0 for ignore, 1 for latch up, 2 for Hiccup after Retry_delay time;\n \nRetry_delay -- in sec, sets the timer before the LTC3884-1 turns on after a fault;\n \ngm -- transconductance of the error amplifier. It must be between 1m mho and 5.73m mho;\n \nRth -- Compensation resistor. It must be set between 0k ohms and 62k ohms;\n \nLowDCR -- set to 1 if DCR is below 1m ohm and make RC = L/(5*DCR), set to 0 if DCR is above \n1m ohm and make RC = L/DCR.
.lib LTC3884-1.sub
.lib LTC7050.sub
.backanno
.end
