* C:\Users\adity\AppData\Local\LTspice\examples\ApplicationsCopy\LTC3309B.asc
* Generated by LTspice 24.1.9 for Windows.
L1 N003 OUT 150n Rser=3m
R1 OUT N004 260K
V1 IN 0 4
R2 N004 0 100K
C1 OUT 0 47µ
R4 OUT N001 500K
C3 OUT N004 2.2p
Rload OUT 0 .4
R3 N002 0 70.7K
X§U1 IN IN N003 N004 0 0 N002 N001 0 LTC3309B
.tran 1.5m startup
.lib LTC3309B.sub
.backanno
.end
