* C:\Users\adity\AppData\Local\LTspice\examples\ApplicationsCopy\LTC3225-1.asc
* Generated by LTspice 24.1.9 for Windows.
V1 IN 0 2.7
C1 N001 N002 1µ
C2 OUT N004 .1m ic=1.5
C3 N004 0 .3m ic=1.2
R1 N003 0 12K
X§U1 N001 N002 N004 IN NC_01 0 N003 0 IN OUT LTC3225-1
.tran 2m startup
* Note: \n1. To emulate the supercapacitor charging process within acceptable \ntime interval, the capacitance is scaled down from its real value;\n2. Load capacitor initial condion can be given to represent the specific \nresidual voltage at the beginning of the charging.
.lib LTC3225-1.sub
.backanno
.end
