* C:\Users\adity\AppData\Local\LTspice\examples\ApplicationsCopy\LTC3525-3.3.asc
* Generated by LTspice 24.1.9 for Windows.
X§U1 IN 0 IN OUT MP_01 N001 LTC3525-3.3
L1 IN N001 10µ
C1 OUT 0 10µ
V1 IN 0 1
Rload OUT 0 55
.tran 1m startup
.lib LTC3525-3.3.sub
.backanno
.end
