* C:\Users\adity\AppData\Local\LTspice\examples\ApplicationsCopy\LTC3311S.asc
* Generated by LTspice 24.1.9 for Windows.
L1 N002 OUT 200n Rser=2m
R1 OUT N004 562K
V1 IN 0 5
R2 N004 0 100K
C5 OUT N004 10p
Rload OUT 0 0.3
C2 N003 0 4.7n
C3 N005 0 1500p
R4 N006 N005 1K
C1 OUT 0 22µ X2 Rser=10m
R3 OUT N001 500K
R5 N007 0 274K
X§U1 IN IN N002 N004 0 0 N007 N001 IN N006 N003 LTC3311S
.tran .4m startup
.lib LTC3311S.sub
.backanno
.end
