* C:\Users\adity\AppData\Local\LTspice\examples\ApplicationsCopy\LTC3119.asc
* Generated by LTspice 24.1.9 for Windows.
V1 IN 0 12
R1 N009 0 105K
L1 N001 N002 3.3µ Rser=10m
C1 N001 N003 .1µ
C2 N002 N004 .1µ
C3 OUT 0 150µ Rser=5m
C4 0 N006 1µ
R2 OUT N005 536K
R3 N005 0 102K
C5 N008 0 680p
Rload OUT 0 1
R4 N007 N008 78.7k
X§U1 0 N003 N001 IN IN IN N006 N006 N005 N007 0 N009 NC_01 OUT N004 N002 LTC3119
* Using the LTspice built-in directive ".softstart", you can reduce the softstart\ntime of some products models' internal softstart.  ".softstart 0.1" directs the\nmodel to execute its internal softstart in 10% of the true start-up time.
.softstart .1
.tran 1m startup
.lib LTC3119.sub
.backanno
.end
