* C:\Users\adity\AppData\Local\LTspice\examples\ApplicationsCopy\LTC3404.asc
* Generated by LTspice 24.1.9 for Windows.
V1 IN 0 5
C1 N003 0 220p
C2 OUT 0 22µ
C3 OUT N002 20p
L1 N001 OUT 4.7µ
R1 OUT N002 887K
R2 N002 0 280K
Rload OUT 0 10
X§U1 IN N003 N002 0 N001 IN IN LTC3404
.tran 500u startup
.lib LTC3404.sub
.backanno
.end
