* C:\Users\adity\AppData\Local\LTspice\examples\ApplicationsCopy\LTC3406B.asc
* Generated by LTspice 24.1.9 for Windows.
V1 IN 0 5
C2 OUT 0 22µ
L1 N001 OUT 4.7µ
Rload OUT 0 5
R1 OUT N002 887K
R2 N002 0 280K
X§U1 IN 0 N001 IN N002 LTC3406B
.tran 500u startup
.lib LTC3406B.sub
.backanno
.end
