* C:\Users\adity\AppData\Local\LTspice\examples\ApplicationsCopy\LTC3427-2.asc
* Generated by LTspice 24.1.9 for Windows.
L1 IN N001 4.7µ
R1 OUT N002 1Meg
R2 N002 0 604K
C1 OUT 0 4.7µ
V1 IN 0 2
Rload OUT 0 20
X§U1 N001 0 IN IN N002 OUT LTC3427-2
.tran 200u startup
.lib LTC3427-2.sub
.backanno
.end
