* C:\Users\adity\AppData\Local\LTspice\examples\ApplicationsCopy\LTC3376.asc
* Generated by LTspice 24.1.9 for Windows.
L1 N001 OUT1 4.7µ
C1 OUT1 0 8µ X3
RLOAD1 OUT1 0 5.1 m=3
R5 OUT1 N002 1.15Meg
R6 N002 0 100k
X§U1 IN NC_01 N009 N004 N002 IN N001 N001 IN IN N003 N003 IN N005 N004 N010 N004 N004 N004 N004 NC_02 NC_03 N011 N004 N007 IN N006 N006 IN IN N017 N017 IN N018 N004 N008 N016 N004 0 0 N004 NC_04 N004 NC_05 0 0 0 0 NC_06 NC_07 NC_08 NC_09 NC_10 N012 N013 N014 N015 0 0 0 0 0 0 0 LTC3376
V1 IN 0 10
C3 N004 0 4.7µ
R1 N008 N004 499K
R2 N009 N004 499K
R3 N010 N004 499K
R4 N004 N011 499K
R7 0 N012 5K
R8 0 N013 5K
R9 0 N014 5K
R10 0 N015 5K
R11 0 N016 402K
C2 N002 0 6.8p
C4 OUT1 N002 2.2p
L2 N003 OUT2 4.7µ
C5 OUT2 0 8µ X3
RLOAD2 OUT2 0 5.1 m=3
R12 OUT2 N005 1.15Meg
R13 N005 0 100k
C6 N005 0 6.8p
C7 OUT2 N005 2.2p
L3 N006 OUT3 4.7µ
C8 OUT3 0 8µ X3
RLOAD3 OUT3 0 5.1 m=3
R14 OUT3 N007 1.15Meg
R15 N007 0 100k
C9 N007 0 6.8p
C10 OUT3 N007 2.2p
L4 N017 OUT4 4.7µ
C11 OUT4 0 8µ X3
RLOAD4 OUT4 0 5.1 m=3
R16 OUT4 N018 1.15Meg
R17 N018 0 100k
C12 N018 0 6.8p
C13 OUT4 N018 2.2p
C14 N004 0 10µ
.tran 2m startup
.lib LTC3376.sub
.backanno
.end
