* C:\Users\adity\AppData\Local\LTspice\examples\ApplicationsCopy\LTC3313-0.75.asc
* Generated by LTspice 24.1.9 for Windows.
L1 N002 OUT 80n Rser=2m
V1 IN 0 3.3
Rload OUT 0 94m
C2 N003 0 3.3n
C3 N004 0 330p
R4 N005 N004 4.99k
C1 OUT 0 47µ x2
R3 OUT N001 500K
R5 N006 0 274K
X§U1 IN IN N002 OUT 0 0 N006 N001 IN N005 N003 LTC3313-0.75
.tran .4m startup
.lib LTC3313-0.75.sub
.backanno
.end
