* C:\Users\adity\AppData\Local\LTspice\examples\ApplicationsCopy\LTC4360-2.asc
* Generated by LTspice 24.1.9 for Windows.
C1 N002 0 10µ
R1 N002 0 10
L1 N003 N004 1µ Rser=150m
V1 N008 0 5
R2 N008 N007 1K
M§Q1 N001 N005 N002 N002 Si4892DY
D1 N002 N001 Davalanche
M§Q2 N004 N006 N001 N001 FDS4953
V2 N003 0 PWL(0u 0 100m 0 +1us 20 150m 20 +10u 0 200m 0 +1u -20 250m -20 +10u 0 400m 0 +1u 5 800m 5 +1u 20)
X§U1 N001 N005 N006 N002 N007 0 LTC4360-2
.model D D
.lib C:\Users\adity\AppData\Local\LTspice\lib\cmp\standard.dio
.model NMOS NMOS
.model PMOS PMOS
.lib C:\Users\adity\AppData\Local\LTspice\lib\cmp\standard.mos
.tran 1000m startup
.model Davalanche D (Vfwd=0.7 Vrev=32 Ron=0.1 Rrev=0.1 epsilon=.1 revepsilon=.1)
* To model avalanche behavior of NFET
.lib LTC4360-2.sub
.backanno
.end
