* C:\Users\adity\AppData\Local\LTspice\examples\ApplicationsCopy\LTC4286.asc
* Generated by LTspice 24.1.9 for Windows.
R1 N003 N005 10
V1 IN 0 PWL(0 0 10u 0 1m 48)
C2 INTVcc 0 0.1µ
C3 N008 0 0.1µ
R5 IN N007 93.1k
R6 N007 N009 3.01k
R7 N009 0 4.22k
R8 OUT N004 62k
R9 N004 0 5.23k
R10 INTVcc _PG 100k
R11 INTVcc N010 100k
C4 N011 0 10n
RS1 N001 IN 0.2m
S1 0 OUT 0 _PG LD
R12 N002 N005 10
C1 OUT 0 1000µ
M1A N001 N003 OUT OUT IPT015N10N5
M1B N001 N002 OUT OUT IPT015N10N5
C5 N007 0 0.1µ
R2 OUT N006 365k
X§U1 N001 IN MP_01 MP_02 IN N008 N007 N009 MP_03 N011 MP_04 INTVcc MP_05 MP_06 INTVcc N004 0 N010 _PG INTVcc N006 OUT MP_07 N005 LTC4286 OC_FAULT_RETRY=1 FET_BAD_RETRY=1
.model NMOS NMOS
.model PMOS PMOS
.lib C:\Users\adity\AppData\Local\LTspice\lib\cmp\standard.mos
.tran 1
.model LD SW(Ron=4 Roff=1k Vt=-0.5 Vh=-0.2)
* Enter register settings in decimals on symbol.\nFor example, use 2 for 10 binary.
.lib LTC4286.sub
.backanno
.end
