* C:\Users\adity\AppData\Local\LTspice\examples\ApplicationsCopy\LTC4412HV.asc
* Generated by LTspice 24.1.9 for Windows.
D1 N001 N002 1N5819
M§Q1 N003 N004 N002 N002 FDC638P
R1 N002 N005 470K
C1 N002 0 10µ
R2 N002 0 100
V1 N003 0 5
V2 N001 0 PWL(0 0 1 7)
X§U1 N003 0 0 N005 N004 N002 LTC4412
.model D D
.lib C:\Users\adity\AppData\Local\LTspice\lib\cmp\standard.dio
.model NMOS NMOS
.model PMOS PMOS
.lib C:\Users\adity\AppData\Local\LTspice\lib\cmp\standard.mos
.tran 1
.lib LTC4412.sub
.backanno
.end
