* C:\Users\adity\AppData\Local\LTspice\examples\ApplicationsCopy\LTC4260-SOAtherm-Tutorial3.asc
* Generated by LTspice 24.1.9 for Windows.
R1 N001 N002 5.7m
R2 N001 N007 49.9K
R3 N008 N007 1.74K
R4 N008 0 2.67K
R5 OUT N006 43.5K
R6 0 N006 3.57K
R7 OUT N009 24K
C2 N012 0 .1µ
C3 N013 0 68n
C4 OUT 0 220µ
R8 0 OUT {Rload}
R9 N003 N005 10
V4 N011 0 PWL(0 3.1 1 3.1 1.0001 0 1.2 0 1.20001 0)
R11 N004 N005 100K
C1 N004 0 10n
C5 N007 0 0.1µ
X§U1 N002 N001 MP_01 N007 N008 0 N010 MP_02 MP_03 MP_04 MP_05 N013 MP_06 N011 MP_07 MP_08 MP_09 N006 N012 N009 MP_10 MP_11 OUT N005 LTC4260 uvautoretry=1 ovautoretry=1 ocautoretry=1
V9 N010 0 PWL(0 0 1u 3.1 1 3.1 1.0001 3.1)
V1 N001 0 PWL(0 0 10u 0 100u 60 1.8 60 +0.1m 60)
M1 P001 P002 P003 P003 PSMN4R8100BSE
X§U3 N002 N003 OUT P001 P002 P003 Tj-FET Tc-FET PSMN4R8100BSE Tambient=70 RthetaJA=10
.model NMOS NMOS
.model PMOS PMOS
.lib C:\Users\adity\AppData\Local\LTspice\lib\cmp\standard.mos
.tran 0 60 0
* simulate board detection
.param Rload=10
.step param Rload list 1 10 50 100
.lib LTC4260.sub
.lib SOAtherm-NMOS.lib
.backanno
.end
