* C:\Users\adity\AppData\Local\LTspice\examples\ApplicationsCopy\LTC4070.asc
* Generated by LTspice 24.1.9 for Windows.
R1 N006 0 R=10K*exp(3490/(V(tempC)+273) - 3490/298)
V1 tempC 0 PWL(0 0 300 80)
V3 N001 0 PWL(0 0 1 10)
R2 N002 N001 1K
R3 N004 N006 10K
C1 N002 0 1µ
X§U1 N004 N006 0 N005 0 N003 N007 N002 LTC4070
.tran 300
.lib LTC4070.sub
.backanno
.end
