* C:\Users\adity\AppData\Local\LTspice\examples\ApplicationsCopy\LTC4126-ADJ.asc
* Generated by LTspice 24.1.9 for Windows.
Crx ACIN 0 47n
Lrx 0 ACIN 13µ
D1 Vcc N004 NSCW100
R1 N007 0 12.4k
C1 OUT 0 2.2µ
C§BAT BAT 0 0.1m IC=3.5 Rser=1m
Ltx N003 N001 6.8µ
V2 N002 0 3.3
R3 OUT 0 10k
Ctx N001 N003 47n
X§U2 N001 0 N008 0 N001 N005 LTC6990
M1 N003 N006 0 0 Si2316DS
V1 N001 0 5
R2 N008 0 243k
R4 N006 N005 10
X§U1 0 N002 NC_01 N007 NC_02 N004 ACIN BAT NC_03 NC_04 Vcc OUT 0 LTC4126-ADJ S_Timer=20m f_FAST=4.58k f_SLOW=1.14k
.model D D
.lib C:\Users\adity\AppData\Local\LTspice\lib\cmp\standard.dio
.model NMOS NMOS
.model PMOS PMOS
.lib C:\Users\adity\AppData\Local\LTspice\lib\cmp\standard.mos
.tran 25m startup
K1 Ltx Lrx 0.2
* To reduce simulation time, the safety timer \ntermination period, the fast blink frequency,\nand the slow blink frequency are parametrized.
.lib LTC4126-ADJ.sub
.lib LTC6990.sub
.backanno
.end
