* C:\Users\adity\AppData\Local\LTspice\examples\ApplicationsCopy\LTC4124.asc
* Generated by LTspice 24.1.9 for Windows.
C1 BAT 0 10µ Rser=5m
C§BAT BAT N003 0.1
C2 IN 0 33n ic=0
L1 IN 0 13µ Rser=500m ic=0
I1 0 IN SINE(0 280m 244k 0)
R§NTC N002 0 100k
D2 OUT N001 NSCW100
V1 N003 0 4.1
RLOAD OUT 0 1K
X§U1 OUT N001 OUT OUT 0 OUT OUT OUT N002 BAT IN 0 0 LTC4124
.model D D
.lib C:\Users\adity\AppData\Local\LTspice\lib\cmp\standard.dio
.tran 120m startup
* Battery Intial Voltage: 4.1V
.lib LTC4124.sub
.backanno
.end
