* C:\Users\adity\AppData\Local\LTspice\examples\ApplicationsCopy\LTC4416-1.asc
* Generated by LTspice 24.1.9 for Windows.
V1 IN 0 PWL(0 0 20m 0 40m 26 60m 0)
R1 0 N003 10K
R2 N004 N003 95.3K
R3 N003 IN 73.2K
V2 N007 0 15
Rload OUT 0 10
C1 OUT 0 10µ Rser=10m
M1 OUT N002 N001 N001 IRF7233
M2 OUT N005 N008 N008 IRF7233
M3 IN N002 N001 N001 IRF7233
M4 N007 N005 N008 N008 IRF7233
X§U2 N004 N003 0 N003 N006 N005 N007 OUT IN N002 LTC4416-1
.model NMOS NMOS
.model PMOS PMOS
.lib C:\Users\adity\AppData\Local\LTspice\lib\cmp\standard.mos
.tran 100m startup
.lib LTC4416-1.sub
.backanno
.end
