* C:\Users\adity\AppData\Local\LTspice\examples\ApplicationsCopy\LTC4354.asc
* Generated by LTspice 24.1.9 for Windows.
X§U1 N001 OUT IN N004 MP_01 N005 N003 N002 LTC4354
R1 0 IN 12K
R2 N001 N006 2K
M§Q1 N006 N004 OUT OUT Si4486EY
M§Q2 N007 N005 OUT OUT Si4486EY
R3 N002 N007 2K
R4 0 N003 33K
C1 IN OUT 1µ
V1 0 N006 48
V2 0 N007 PULSE(0 55 10m 100u 100u 10m 100m)
C2 0 OUT 100µ
R5 0 OUT 10
.model NMOS NMOS
.model PMOS PMOS
.lib C:\Users\adity\AppData\Local\LTspice\lib\cmp\standard.mos
.tran 100m startup
.lib LTC4354.sub
.backanno
.end
