* C:\Users\adity\AppData\Local\LTspice\examples\ApplicationsCopy\LTC4413-2.asc
* Generated by LTspice 24.1.9 for Windows.
V§WALL IN 0 5
V§BAT N005 0 3.6
R§LOAD OUT 0 10
VCC N004 0 5
C3 OUT 0 4.7µ
R1 N004 N003 470K
C1 IN 0 0.1µ Rser=1
C2 N001 0 10µ
X§U1 N001 0 0 0 N005 OUT N002 IN N003 OUT LTC4413-2
M1 N001 N002 IN IN IRLML6402
.model NMOS NMOS
.model PMOS PMOS
.lib C:\Users\adity\AppData\Local\LTspice\lib\cmp\standard.mos
.tran 100m startup
.lib LTC4413-2.sub
.backanno
.end
