* C:\Users\adity\AppData\Local\LTspice\examples\ApplicationsCopy\LTC4054X-4.2.asc
* Generated by LTspice 24.1.9 for Windows.
CBAT OUT 0 10
R1 N003 0 1.5K
R2 N001 N002 330
D1 IN N001 NSCW100
V2 IN 0 PWL(0 0 20u 5)
X§U1 N002 0 OUT IN N003 LTC4054X-4.2
.model D D
.lib C:\Users\adity\AppData\Local\LTspice\lib\cmp\standard.dio
.tran 600
.lib LTC4054X-4.2.sub
.backanno
.end
