* C:\Users\adity\AppData\Local\LTspice\examples\ApplicationsCopy\LTC4041.asc
* Generated by LTspice 24.1.9 for Windows.
V1 IN 0 5
M1 IN N003 N001 N001 BSB012N03MX3
R1 N001 N002 10m
L1 N008 CAP 2.2µ Rser=10m
R2 N005 0 200K
R3 OUT N005 1.05Meg
C1 OUT 0 100µ
R4 IN N006 113K
R5 N006 0 38.3K
Csupercap1 CAP N012 10mF Rser=.1
R6 CAP N010 1070K
R7 N010 0 340K
R8 N014 0 1K
Csupercap2 N012 0 10mF Rser=.1
R9 IN N004 6.2K
M2 OUT N003 N002 N002 BSB012N03MX3
C5 N015 0 1n
R10 OUT N007 1.5K
R11 OUT N009 1.5K
R13 OUT N013 1Meg
R12 OUT N011 1.5K
I1 OUT 0 0.5 load
C2 OUT 0 100µ
C3 N001 0 2.2µ
C4 OUT 0 0.1µ
X§U1 OUT N014 NC_01 0 0 N001 N002 N013 N012 N005 N011 N010 N009 N007 N003 N004 N015 N005 N006 OUT N008 0 CAP LTC4041
.model NMOS NMOS
.model PMOS PMOS
.lib C:\Users\adity\AppData\Local\LTspice\lib\cmp\standard.mos
.tran 12m startup uic
.lib LTC4041.sub
.backanno
.end
