* C:\Users\adity\AppData\Local\LTspice\examples\ApplicationsCopy\LTC4555.asc
* Generated by LTspice 24.1.9 for Windows.
V1 IN 0 1.8
V2 N001 0 3.3
C1 N002 0 1µ
V3 N005 0 PULSE(0 1.8 1m 10u 10u 100u 200u)
C2 N006 0 30p
V4 N003 0 PULSE(0 1.8 1m 10n 10n 100n 200n)
C3 N004 0 30p
X§U2 IN IN IN NC_01 N003 N005 N006 NC_02 N004 N001 N002 0 LTC4555
.tran 5m startup
.lib LTC4555.sub
.backanno
.end
