* C:\Users\adity\AppData\Local\LTspice\examples\ApplicationsCopy\LTC6085.asc
* Generated by LTspice 24.1.9 for Windows.
V1 +V 0 2.5
V2 N003 0 SINE(0 .2 1K)
R1 N001 N003 1K
R2 N002 N001 10K
V3 -V 0 -2.5
X§U1 0 N001 +V -V N002 LTC6085
.tran 3m
.lib LTC6.lib
.backanno
.end
