* C:\Users\adity\AppData\Local\LTspice\examples\ApplicationsCopy\LTC6992-2.asc
* Generated by LTspice 24.1.9 for Windows.
R1 N003 0 487K
R2 N004 0 1000K
R3 N002 N004 392K
R4 PWMout 0 10K
V1 N002 0 3
V2 N001 0 PULSE(0 1 10m 50m 50m 5m 110m)
X§U1 N001 0 N003 N004 N002 PWMout LTC6992-2
.tran 120m startup
* 400Hz, 95% to 5% Duty Cycle\nSwept Pulse Width Modulated Output\nStartup Modeled
.lib LTC6992-2.sub
.backanno
.end
