* C:\Users\adity\AppData\Local\LTspice\examples\ApplicationsCopy\LTC6911-2.asc
* Generated by LTspice 24.1.9 for Windows.
V2 +V 0 +5
V3 N001 0 SINE(2.5 10m 1K)
V4 N005 0 PULSE(0 5 0 1u 1u 5m 10m)
V5 N007 0 PULSE(0 5 0 1u 1u 10m 20m)
V6 N006 0 PULSE(0 5 0 1u 1u 20m 40m)
C2 N003 0 1µ
X§U1 N001 N003 N001 N005 N007 N006 +V N004 0 N002 LTC6911-2
.tran 40m
.lib LTC6911-2.sub
.backanno
.end
