* C:\Users\adity\AppData\Local\LTspice\examples\ApplicationsCopy\LTC6908-2.asc
* Generated by LTspice 24.1.9 for Windows.
V1 N001 0 5
R1 N001 N004 44.2K
X§U1 N001 0 N004 0 N003 N002 LTC6908-2
.tran 20u
.lib LTC6908-2.sub
.backanno
.end
