* C:\Users\adity\AppData\Local\LTspice\examples\ApplicationsCopy\LTC6101.asc
* Generated by LTspice 24.1.9 for Windows.
V1 N002 0 12
R1 N002 N001 .1
Iload N001 0 0
X§U1 OUT 0 N003 N001 N002 LTC6101
R2 N002 N003 100
R3 OUT 0 5K
.dc Iload 0 1 0.01
.lib LTC3.lib
.backanno
.end
