* C:\Users\adity\AppData\Local\LTspice\examples\ApplicationsCopy\LTC6655LN-5.asc
* Generated by LTspice 24.1.9 for Windows.
C1 OUT 0 10µ
C2 N001 0 10µ
V1 IN 0 5.5
X§U1 IN IN 0 N001 OUT LTC6655LN-5
.tran 50m startup
.lib LTC6655LN-5.sub
.backanno
.end
