* C:\Users\adity\AppData\Local\LTspice\examples\ApplicationsCopy\LTC6655LN-2.5.asc
* Generated by LTspice 24.1.9 for Windows.
C1 vIN 0 1µ
V1 vIN 0 5
C2 N001 0 10µ
C3 vOUT 0 10µ
X§U1 vIN vIN 0 N001 vOUT LTC6655LN-2.5
.tran 5m startup
.lib LTC6655LN-2.5.sub
.backanno
.end
