* C:\Users\adity\AppData\Local\LTspice\examples\ApplicationsCopy\LTC6226.asc
* Generated by LTspice 24.1.9 for Windows.
V1 V+ 0 5
V2 V- 0 -5
V3 In 0 PULSE(-75m 75m 100n 1n 1n 400n 800n)
X§U2 In N001 Out V+ V- V+ LTC6226
R1 Out N001 100
R2 N001 0 11
.tran 1u
.lib LTC6226.lib
.backanno
.end
