* C:\Users\adity\AppData\Local\LTspice\examples\ApplicationsCopy\LTC6563.asc
* Generated by LTspice 24.1.9 for Windows.
E1 OMUX2 3.3V OMUX1 0 -1
C2 N002 0 0.1µ
Rload1 OUT N002 50
Rload2 N002 OUTBAR 50
V1 3.3V 0 3.3
V2 CM 0 1.5
V3 HI 0 3.3
C1 IN1_1 0 1p
V4 CHSEL0 0 3.3
V5 OMUX1 0 PULSE(3.3 0 50n 0.1n 0.1n 150n 200n 1)
I1_1 IN1_1 0 PULSE(0 45u 0 0.1n 0.1n 10n 200n)
X§U1 3.3V 0 3.3V IN1_1 IN1_2 NC_01 NC_02 NC_03 0 SW1 3.3V 3.3V OMUX1 0 CM 3.3V HI OUT OUTBAR N001 N003 LTC6563
X§U2 3.3V 0 3.3V NC_04 NC_05 NC_06 IN2_4 NC_07 CHSEL0 CHSEL0 3.3V 3.3V OMUX2 3.3V CM 3.3V HI N004 N007 N005 N006 LTC6563
R1 N003 OUTBAR 1
R2 OUT N001 1
R3 OUT N004 1
R4 OUTBAR N007 1
C4 IN2_4 0 1p
I2_4 IN2_4 0 PULSE(0 90u 140n 0.1n 0.1n 10n 200n)
C5 IN1_2 0 1p
I1_2 IN1_2 0 PULSE(0 20u 25n 0.1n 0.1n 10n 200n)
V_ch SW1 0 PULSE(0 3.3 15n 0.1n 0.1n 30n 1000n)
* Large overload could create unreal artifacts
.tran 200n
.lib LTC6563.lib
.backanno
.end
