* C:\Users\adity\AppData\Local\LTspice\examples\ApplicationsCopy\LTC6401-14.asc
* Generated by LTspice 24.1.9 for Windows.
V1 N004 0 SINE(0 100m 100Meg)
V2 N007 0 -1.5
V4 N001 0 1.5
X§U1 0 0 N001 N002 N006 N007 N007 N004 N005 N003 LTC6401-14
.tran 100n
.lib LTC6.lib
.backanno
.end
