* C:\Users\adity\AppData\Local\LTspice\examples\ApplicationsCopy\LTC6253-7.asc
* Generated by LTspice 24.1.9 for Windows.
X§U1 N008 V- IN- N007 V+ V+ LTC6253-7
V1 V+ 0 1.65
V2 V- 0 -1.65
R1 N001 N003 1.2K
X§U2 N001 V- IN+ N003 V+ V+ LTC6253-7
R2 N003 N005 30.1
R3 N005 N007 30.1
R4 N008 N007 1.2K
X§U3 OUT V- N002 N006 V+ LTC6253
R5 N002 N001 750
R6 0 N002 750
R7 N006 N008 750
R8 OUT N006 750
C1 N005 N004 15p
R9 N004 0 200
V3 IN- 0 0
V4 IN+ IN- AC 1
.ac oct 50 10k 400Meg
* High Speed Low Voltage Instrumentation Amplifier
.lib LTC4.lib
.backanno
.end
