* C:\Users\adity\AppData\Local\LTspice\examples\ApplicationsCopy\LTC6363-.5.asc
* Generated by LTspice 24.1.9 for Windows.
V1 +V 0 6
V2 -V 0 -1
V3 IN 0 SINE(0 500m 250K)
C1 N001 0 .1µ
X§U1 0 N001 +V +OUT -OUT -V +V IN LTC6363-.5
.tran 20u
.lib LTC2.lib
.backanno
.end
