* C:\Users\adity\AppData\Local\LTspice\examples\ApplicationsCopy\LTC6244HV.asc
* Generated by LTspice 24.1.9 for Windows.
V1 +V 0 5
V2 -V 0 -5
X§U1 IN OUT +V -V OUT LTC6244
V3 IN 0 PULSE(-1 1 0 1n 1n 10u 20u)
.tran 100u
.lib LTC5.lib
.backanno
.end
