* C:\Users\adity\AppData\Local\LTspice\examples\ApplicationsCopy\LTC7103-1.asc
* Generated by LTspice 24.1.9 for Windows.
L1 N002 VOUT 18µ Rser=5m
C1 VOUT 0 100µ V=6.3 Irms=10.4 Rser=0.00317263 Lser=0 mfg="KEMET" pn="C1210C107K9PAC" type="X5R"
V1 VIN 0 50
Rload VOUT 0 5
C3 N003 N004 0.0022µ IC=0 V=50 Irms=0 Rser=0 Lser=0 mfg="Murata" pn="GCM155R71H222JA37" type="X7R"
R1 N004 0 10k
X§U1 MP_01 MP_02 VIN MP_03 MP_04 0 0 NC_05 N003 VOUT 0 0 NC_06 NC_07 NC_08 NC_09 NC_10 NC_11 0 VOUT N003 MP_12 MP_13 N002 MP_14 MP_15 N001 MP_16 MP_17 VIN MP_18 MP_19 MP_20 MP_21 0 LTC7103-1
C2 N001 N002 0.1µ V=6.3 Irms=0 Rser=0 Lser=0 mfg="Murata" pn="GRM033R60J104KE84" type="X5R"
C4 N003 0 1µ IC=0 V=6.3 Irms=0 Rser=0 Lser=0 mfg="Murata" pn="GRM155R70J105KA12" type="X7R"
.tran 3m startup
.lib LTC7103-1.sub
.backanno
.end
