* C:\Users\adity\AppData\Local\LTspice\examples\ApplicationsCopy\LTC7890.asc
* Generated by LTspice 24.1.9 for Windows.
V1 IN 0 30
C1 INTVcc 0 4.7µ
C4 N004 N013 0.1µ
L2 N013 N014 2µ Rser=2m
R5 N007 N008 2
R6 N010 N008 2
R7 N017 N018 2
R8 N020 N018 2
R12 N014 OUT2 1.5m
C6 N014 OUT2 1n
R13 OUT2 N021 1.4Meg
R14 N021 0 100K
C10 OUT2 0 150µ m=2 Rser=100m
R15 N027 0 75K
Rload2 OUT2 0 1
R10 INTVcc N001 100K
C2 INTVcc 0 4.7µ
R9 INTVcc N002 100K
C12 N023 0 0.01µ
C14 N025 N028 3.3n
C3 N003 N012 0.1µ
L1 N012 N011 2µ Rser=2m
R1 N006 N005 2
R2 N009 N005 2
R3 N016 N015 2
R4 N019 N015 2
R11 N011 OUT1 1.5m
C5 N011 OUT1 1n
Rload1 OUT1 0 1
C11 N022 0 0.01µ
C13 N024 N026 3.3n
X§U2 IN N005 N012 EPC2007
X§U3 N012 N015 0 EPC2007
X§U4 N012 N015 0 EPC2007
X§U5 IN N008 N013 EPC2007
X§U6 N013 N018 0 EPC2007
X§U7 N013 N018 0 EPC2007
X§U1 IN N027 INTVcc 0 0 N003 IN IN OUT2 N014 N021 N025 N023 N002 N013 N007 N010 N017 INTVcc OUT1 0 N020 N016 N019 N006 N012 N001 N009 N022 N024 OUT1 N011 OUT1 0 INTVcc INTVcc N004 NC_01 INTVcc INTVcc LTC7890
C9 OUT1 0 150µ m=2 Rser=100m
C8 OUT2 0 22µ m=4 Rser=10m
C7 OUT1 0 22µ m=4 Rser=10m
R16 N026 0 4.02K
R17 N028 0 5.9K
.tran 1.2m startup
.lib EPC2007.lib
.lib LTC7890.sub
.backanno
.end
