* C:\Users\adity\AppData\Local\LTspice\examples\ApplicationsCopy\LTC7804.asc
* Generated by LTspice 24.1.9 for Windows.
V1 IN 0 12
C3 N008 0 0.01µ
R1 N002 IN 2m
L1 N002 N005 2µ Rser=1.3m
M2 OUT N004 N005 N005 BSC022N04LS6
M1 N005 N006 0 0 BSC059N04LS6
C2 N003 N005 0.1µ
C5 OUT 0 100µ Rser=22m
R3 N007 0 31.6K
R2 OUT N007 604K
C4 N009 0 22n Rser=8.06K Cpar=220p
Rload OUT 0 200
C1 N001 0 4.7µ
C7 OUT 0 10µ X2 Rser=5m
D2 N001 N003 CMDSH-4E
C6 IN N002 1n
X§U1 N002 0 MP_01 0 0 0 IN MP_02 MP_03 MP_04 MP_05 MP_06 MP_07 MP_08 MP_09 MP_10 MP_11 MP_12 N001 0 MP_13 IN N006 N003 N005 N004 MP_14 MP_15 N008 N009 N007 IN LTC7804
.model D D
.lib C:\Users\adity\AppData\Local\LTspice\lib\cmp\standard.dio
.model NMOS NMOS
.model PMOS PMOS
.lib C:\Users\adity\AppData\Local\LTspice\lib\cmp\standard.mos
.tran 3m startup
.lib LTC7804.sub
.backanno
.end
