* C:\Users\adity\AppData\Local\LTspice\examples\ApplicationsCopy\LTC7819.asc
* Generated by LTspice 24.1.9 for Windows.
M1 VIN N002 N007 N007 BSC059N04LS
M2 N007 N010 0 0 BSC022N04LS6
C1 N004 N007 0.1µ
M3 VIN N011 N013 N013 BSC059N04LS
M4 N013 N016 0 0 BSC022N04LS6
C2 N012 N013 0.1µ
L1 N007 N008 1µ
R1 VOUT N008 2m
L2 N013 N014 1µ
R2 VOUT N014 2m
M5 VIN N001 N006 N006 BSC059N04LS
M6 N006 N009 0 0 BSC022N04LS6
C3 N003 N006 0.1µ
L3 N006 N005 1µ
R3 VOUT N005 2m
D1 INTVcc N004 RB160MM-90
R4 N017 N018 4.53K
C6 N018 0 3.3n
C5 N017 0 100p
C4 N015 0 1n
D2 INTVcc N012 RB160MM-90
D3 INTVcc N003 RB160MM-90
C7 INTVcc 0 4.7µ
V1 VIN 0 12
C8 VOUT 0 330µ Rser=5m
Rload VOUT 0 0.1
X§U1 0 N015 VOUT N005 VOUT N017 NC_01 VIN VIN VIN VOUT N008 INTVcc 0 NC_02 INTVcc NC_03 N002 N007 N004 N010 INTVcc VOUT VIN N009 N003 N001 N006 N016 N012 N013 N011 NC_04 0 NC_05 0 INTVcc N014 VOUT 0 0 LTC7819
.model D D
.lib C:\Users\adity\AppData\Local\LTspice\lib\cmp\standard.dio
.model NMOS NMOS
.model PMOS PMOS
.lib C:\Users\adity\AppData\Local\LTspice\lib\cmp\standard.mos
.tran 0.4m startup
.lib LTC7819.sub
.backanno
.end
