* C:\Users\adity\AppData\Local\LTspice\examples\ApplicationsCopy\LTC7852-1.asc
* Generated by LTspice 24.1.9 for Windows.
L1 N003 vOUT 180n Rser=.32m
C1 vOUT 0 330µ x3
R1 vOUT 0 10m
V1 vIN 0 12
V2 Vcc 0 5
L2 N005 vOUT 180n Rser=.32m
R15 N008 0 37.5K
C23 SS1 0 4.7n
R3 N004 N007 33.2
R4 N006 N007 33.2
R10 vOUT Vosns1+ 8k
R13 Vcc N002 10k
C3 0 N001 2.2µ
C6 Ith1 0 6.8n Rser=1.54K Cpar=100p ic=0.65
C7 N007 0 0.1µ rpar=1k
C2 vOUT 0 100µ x2
R2 N007 Vcc 2.61k
R5 Vosns1+ 0 12k
X§U1 0 NC_01 NC_02 NC_03 NC_04 NC_05 NC_06 NC_07 NC_08 NC_09 NC_10 NC_11 NC_12 NC_13 NC_14 NC_15 PWM3 NC_16 PWM2 Vcc NC_17 N008 NC_18 Vcc Vosns1+ 0 Ith1 SS1 N002 PWM1 N004 NC_19 N001 N006 NC_20 N007 LTC7852-1
X§U2 Vcc PWM1 Vcc 0 N005 N006 PWM2 Vcc Vcc vIN N003 0 N004 NC_21 NC_22 LTC7050 RTon=5m RBon=1.2m OV=14.8
.tran 5000u startup
.lib LTC7050.sub
.lib LTC7852-1.sub
.backanno
.end
