* C:\Users\adity\AppData\Local\LTspice\examples\ApplicationsCopy\LTC7004.asc
* Generated by LTspice 24.1.9 for Windows.
V1 IN 0 10
V2 N003 0 PULSE(0 8 0 10n 10n 0.3u 3.33u)
D1 IN N001 RF071MM2S
M1 N002 N004 N005 N005 IPB039N10N3
L1 N005 OUT 10µ Rser=3m
C1 OUT 0 10µ Rser=7m
R1 OUT 0 10
V3 N002 0 36
C2 N001 N005 .1µ
D2 0 N005 RF1001NS2D
X§U1 IN 0 0 N003 0 N004 N004 N005 N001 LTC7004
.model D D
.lib C:\Users\adity\AppData\Local\LTspice\lib\cmp\standard.dio
.model NMOS NMOS
.model PMOS PMOS
.lib C:\Users\adity\AppData\Local\LTspice\lib\cmp\standard.mos
.tran .5m startup
.lib LTC7004.sub
.backanno
.end
