* C:\Users\adity\AppData\Local\LTspice\examples\ApplicationsCopy\LTC7150S.asc
* Generated by LTspice 24.1.9 for Windows.
V1 IN 0 12
R1 N006 0 162K
C1 N002 0 10n
C2 N003 0 4.7µ
L1 N004 OUT .25µ
R2 OUT N005 10K
R3 N005 0 10K
C4 N007 0 1n Rser=10K
C5 OUT 0 100µ
Rload OUT 0 1
R4 OUT N001 10K
X§U1 N006 NC_01 0 N005 N002 N007 IN N001 N003 0 N004 0 NC_02 0 IN IN LTC7150S
.tran 2m startup
.softstart 0 ; turn off internal softstart
.lib LTC7150S.sub
.backanno
.end
