* C:\Users\adity\AppData\Local\LTspice\examples\ApplicationsCopy\LTC7880.asc
* Generated by LTspice 24.1.9 for Windows.
C1 0 N001 4.7µ
L1 N010 N009 6.8µ Ipk=36.2 Rser=0.00186 Rpar=640.56 Cpar=0 mfg="Coilcraft" pn="SER2915H-682"
D1 N001 N005 CMDSH2-3
C3 N014 N016 1n
R1 N010 N014 10
R2 OUT1 0 12
C7 N006 N009 0.1µ
D2 N001 N006 CMDSH2-3
C8 N013 N015 1n
R11 N007 N013 10
C9 OUT1 0 120µ X2 Rser=10m
C10 N018 0 100p
C11 N020 0 4.7n
R3 N021 N022 10K
R4 N025 N021 4.99K
C12 N021 0 2.2µ
C13 N024 0 2.2µ
R8 IN1 N010 2m
R10 IN0 N015 10
R13 IN0 N007 3m
C16 OUT1 0 10µ X4 Rser=2m
M§Q3 OUT1 N004 N009 N009 BSC067N06LS3 M=2
M§Q4 N009 N012 0 0 BSC067N06LS3 M=2
M§Q1 OUT0 N003 N008 N008 BSC067N06LS3 M=2
M§Q2 N008 N011 0 0 BSC067N06LS3 M=2
C5 OUT0 0 120µ X2 Rser=10m
C15 OUT0 0 10µ X4 Rser=2m
R5 OUT0 0 4.8
V2 N002 0 12
C2 N005 N008 0.1µ
R6 IN1 N016 10
V3 IN1 0 12
V1 IN0 0 12
R7 N023 N021 10K
C4 N017 0 100p
C6 N019 0 4.7n
L2 N007 N008 6.8µ Ipk=36.2 Rser=0.00186 Rpar=640.56 Cpar=0 mfg="Coilcraft" pn="SER2915H-682"
X§U1 OUT0 NC_01 N016 N014 N019 N015 N013 N025 NC_02 N017 N018 NC_03 NC_04 N022 N023 0 NC_05 NC_06 NC_07 N008 N003 N024 N005 N011 N021 N020 OUT1 N002 N009 N004 N006 N012 N001 0 IN0 IN1 LTC7880 DRVSet=2 Freq=500K Mode_ll=1 Fault_response=0 Retry_delay=.1m Vin_ON=6.5 Vin_OFF=6 Ton0_delay=.1m Ton0_rise=2m Toff0_delay=.2m Toff0_fall=.3m PHs_0=0 Vout_0=24 Vout0_range=1 Ilim0_range=1 Iin0_OC_Fault_Limit=1 gm0=1.68m Rth0=24k Ton1_delay=.1m Ton1_rise=2m Toff1_delay=.2m Toff1_fall=.3m PHs_1=180 Vout_1=48 Vout1_range=0 Ilim1_range=1 Iin1_OC_Fault_Limit=1 gm1=1.68m Rth1=24k
.model D D
.lib C:\Users\adity\AppData\Local\LTspice\lib\cmp\standard.dio
.model NMOS NMOS
.model PMOS PMOS
.lib C:\Users\adity\AppData\Local\LTspice\lib\cmp\standard.mos
.tran 3m startup
* Please read the following notes carefully since the model behaves differently from the user \ninterface for the LTC7880.\n \n(1) PMBus communication and memory address related functions and pins are not modeled.\n \n(2) Changes to parameter values while the simulation is running will not take effect unless the\nsimulation is stopped and restarted. This is different from the way the part operates which will\nrespond to the changes while running.  \n \n(3) Share_clk is not modeled. The default time reference of LTspice is used as the common time \nbase for all time-related parameters.\n \n(4)The following parameters can be defined by right-clicking on the LTC7880 symbol.\nThe nomenclature used here differs from the one in the data sheet. If any value of these parameters is\nset beyond the scope described in the data sheet, the resulting simulation will not be meaningful.\n \n     DRVSet - Select DRVCC level; 0 - 6.3V; 1 - 7.4V; 2- 9.0V \n     Vin_ON & Vin_OFF -- in volts, set the unit start/stop input voltages; \n     Freq -- in Hz, sets switching frequency as one of values of 85k, 100k, 125k, 150k, 200k, 250k, 275k, 300k, 350k, 425k, 500k. \n                                Freq_cfg pin needs to float or short to VDD25, to make the value be in effect;\n     PHs_0 & PHs_1 -- in degree, set phase angle related to SYNC signal. \n                Certain combinations are restricted as in data sheet. Phase_cfg pin needs to float or \n                short to VDD25, to make the value be in effect;  \n     Ton0_delay & Ton0_rise; Ton1_delay & Ton1_rise -- in sec, set delay and soft-start timers for \n                channel0 and channel1. Initialization time is not modeled; \n     Toff0_delay & Toff0_fall; Toff1_delay & Toff1_fall -- in sec, set delay and soft-off timers for \n                channel0 and channel1;\n     Vout_0 & Vout_1 -- in volt, set output voltages respectively. Vout_cfgn pin needs to float or \n                short to VDD25, to make the value be in effect;\n     Vout0_range & Vout1_range -- set maximum output range, \n                                with value 0 for 60V, value 1 for 30V;\n     Ilim0_range & Ilim1_range -- set maximum sensed peak current range, \n                                with value 0 for low (50mV), and 1 for high (75mV);\n     Iin0_OC_Fault_Limit & Iin1_OC_Fault_Limit -- sets the value of the peak input current limit, in amperes.\n                 For Ilim0_range=0\n                 1 for 50mV/Iin_Cal_Gain; 0.928 for 46.4mV/Iin_Cal_Gain; 0.858 for 42.9mV/Iin_Cal_Gain; \n                 0.786 for 39.3mV/Iin_Cal_Gain; 0.714 for 35.7mV/Iin_Cal_Gain; 0.642 for 32.1mV/Iin_Cal_Gain   \n                 0.572 for 28.6mV/Iin_Cal_Gain; 0.5 for 25mV/Iin_Cal_Gain   \n                 For Ilim0_range=1\n                 1 for 75mV/Iin_Cal_Gain; 0.928 for 69.6mV/Iin_Cal_Gain; 0.858 for 64.3mV/Iin_Cal_Gain; \n                 0.786 for 58.9mV/Iin_Cal_Gain; 0.714 for 53.6mV/Iin_Cal_Gain; 0.642 for 48.2mV/Iin_Cal_Gain   \n                 0.572 for 42.9mV/Iin_Cal_Gain; 0.5 for 37.5mV/Iin_Cal_Gain \n     Mode_II -- sets light load operation mode: 0 for discontinuous, 1 for forced continuous;\n     Fault_response -- sets the response mode of the LTC7880 to occuring faults:\n              0 for ignore, 1 for latch up, 2 for Hiccup after Retry_delay time;\n     Retry_delay -- in sec, sets the timer before the LTC7880 turns on after a fault;\n     gm0, gm1 -- transconductance of the error amplifier. It must be between 1m mho and 5.73m mho;\n     Rth0,Rth1 -- Compensation resistor. It must be set between 0k ohms and 62k ohms;
.lib LTC7880.sub
.backanno
.end
