* C:\Users\adity\AppData\Local\LTspice\examples\ApplicationsCopy\LTC7825.asc
* Generated by LTspice 24.1.9 for Windows.
C1 N004 N006 0.22µ
C2 N007 N009 0.47µ
C3 N010 N013 1µ
C4 N006 N013 10µ m=8
C5 INTVcc 0 4.7µ
C7 N009 0 10µ m=2
C6 vIN N009 10µ m=4
V1 vIN 0 20
C8 vOUT 0 10µ m=2
C9 N008 0 0.1µ
C10 vIN 0 1µ
R2 _FAULT INTVcc 10k
R3 N009 N014 4.99
C11 N014 0 1µ
R4 0 N005 102k
R5 N002 0 1
M1 N012 _FAULT 0 0 BSC016N04LS
M2 N002 N012 vOUT vOUT FDR840P
R6 vOUT N012 20k
C12 N012 0 10p
R7 0 N011 200k
M3 vIN N001 N003 N003 BSZ0901NS
X§U1 N003 N006 N009 N013 0 vOUT N010 N008 NC_01 N011 N007 N005 _FAULT N004 0 N014 INTVcc vIN N001 LTC7825
.model NMOS NMOS
.model PMOS PMOS
.lib C:\Users\adity\AppData\Local\LTspice\lib\cmp\standard.mos
.tran 8.5m
.lib LTC7825.sub
.backanno
.end
