* C:\Users\adity\AppData\Local\LTspice\examples\ApplicationsCopy\LTM4673.asc
* Generated by LTspice 24.1.9 for Windows.
V1 IN 0 12
C1 OUT3 0 100µ x2 Rser=3m
R1 OUT3 0 0.075
R2 0 N002 121k
C2 0 N006 1n
C3 0 OUT0 100µ x2 Rser=3m
R4 N001 0 90.9k
C4 N005 0 1n
C5 OUT2 0 47µ x2
R5 OUT2 0 0.36
R6 0 N008 30.1K
C6 N009 0 220p
C7 N010 0 220p
C8 OUT1 0 47µ x2
R7 OUT1 0 0.24
R8 N007 0 60.4k
C12 IN 0 100µ x2 Rser=10m
C10 0 IN 22µ x4
R3 OUT0 0 0.082
X§U1 NC_01 OUT0 IN NC_02 NC_03 IN 0 NC_04 N008 N010 NC_05 OUT0 OUT2 N003 NC_06 NC_07 OUT2 IN NC_08 OUT1 IN IN OUT1 N001 N002 NC_09 N009 N007 MP_10 MP_11 N005 NC_12 N003 NC_13 NC_14 NC_15 NC_16 0 N006 NC_17 N004 NC_18 NC_19 NC_20 NC_21 0 OUT3 OUT3 N004 LTM4673
.tran 0.3m startup
.lib LTM4673.sub
.backanno
.end
