* C:\Users\adity\AppData\Local\LTspice\examples\ApplicationsCopy\LTM4652.asc
* Generated by LTspice 24.1.9 for Windows.
C1 N001 0 4.7µ
V1 IN 0 12
R2 IN N002 10K
C4 OUT 0 220µ x3 V=6.3 Irms=3.2 Rser=0.012 Lser=0 mfg="KEMET" pn="T520V227M006ASE012" type="Tantalum"
R5 N005 0 13.3K
C5 N007 0 .001µ
Rload OUT 0 .066
D1 0 N002 1N750
C2 OUT 0 220µ x3 V=6.3 Irms=3.2 Rser=0.012 Lser=0 mfg="KEMET" pn="T520V227M006ASE012" type="Tantalum"
C3 N006 0 1n Rser=10K
X§U1 N007 N006 N005 0 N005 N006 N007 OUT N003 OUT 0 N003 N002 OUT N004 NC_01 NC_02 0 NC_03 0 MP_04 MP_05 MP_06 NC_07 N001 IN MP_08 MP_09 MP_10 MP_11 NC_12 NC_13 0 0 N001 MP_14 MP_15 N002 LTM4652
.model D D
.lib C:\Users\adity\AppData\Local\LTspice\lib\cmp\standard.dio
.tran .4m startup
.lib LTM4652.sub
.backanno
.end
