* C:\Users\adity\AppData\Local\LTspice\examples\ApplicationsCopy\LTM4647.asc
* Generated by LTspice 24.1.9 for Windows.
V1 IN 0 12
R1 N002 0 43.2K
C1 N005 0 1n
C2 OUT 0 100µ Rser=3m x10
R2 OUT 0 33m
C3 OUT N004 47p
R3 N004 0 90.6K
C4 N001 0 4.7µ
X§U1 IN IN 0 OUT N005 IN OUT N004 NC_01 0 N003 N003 N001 NC_02 NC_03 NC_04 N001 NC_05 N002 NC_06 0 NC_07 LTM4647
.tran 1m startup
.lib LTM4647.sub
.backanno
.end
