* C:\Users\adity\AppData\Local\LTspice\examples\ApplicationsCopy\LTM4657.asc
* Generated by LTspice 24.1.9 for Windows.
V1 IN 0 12
C7 0 INTVcc 2.2µF
R1 N001 IN 150k
C1 N003 0 2n
C3 OUT 0 300µ
C4 OUT N004 100p
R3 0 N004 60.4k
R4 INTVcc N002 100k
X§U1 IN N001 N003 NC_01 NC_02 NC_03 NC_04 N002 INTVcc NC_05 OUT OUT N004 0 N005 N005 0 LTM4657
R5 OUT 0 0.125
.tran 1m startup
.lib LTM4657.sub
.backanno
.end
