* C:\Users\adity\AppData\Local\LTspice\examples\ApplicationsCopy\LTM4618.asc
* Generated by LTspice 24.1.9 for Windows.
X§U1 0 NC_01 NC_02 NC_03 OUT MP_04 MP_05 N001 0 N001 N003 NC_06 N002 NC_07 IN 0 LTM4618
C1 N002 0 .001µ
R1 N003 0 28K
V1 IN 0 12
C2 OUT 0 47µ Rser=6m
Rload OUT 0 .4
.tran 1m startup
.lib LTM4618.sub
.backanno
.end
