* C:\Users\adity\AppData\Local\LTspice\examples\ApplicationsCopy\LTM4702.asc
* Generated by LTspice 24.1.9 for Windows.
V1 IN 0 12
R1 N001 0 137k
Rload OUT 0 0.124
R3 OUT N004 49.9k
C2 OUT 0 100µ Rser=5m
C3 OUT 0 100µ Rser = 5m
R5 OUT N002 100k
C4 N005 0 0.33µ
R6 N005 0 10k
X§U1 NC_01 NC_02 0 NC_03 IN OUT IN IN NC_04 NC_05 N005 N003 OUT N004 N001 N002 N003 0 0 LTM4702
.tran 5m startup
* Vin=12V, Vout=1V/8A
.lib LTM4702.sub
.backanno
.end
