* C:\Users\adity\AppData\Local\LTspice\examples\ApplicationsCopy\LTM4658.asc
* Generated by LTspice 24.1.9 for Windows.
R4 OUT N003 60.4k
V2 IN 0 3.3
R5 N003 0 60.4k
Rload OUT 0 0.1
C6 N002 0 4.7n
C7 OUT 0 100µ
R6 IN N001 500K
R7 N004 0 274K
X§U1 IN IN SW N003 0 0 N004 N001 IN Comp N002 OUT LTM4658
.tran .4m startup
.lib LTM4658.sub
.backanno
.end
