* C:\Users\adity\AppData\Local\LTspice\examples\ApplicationsCopy\LTM4604A.asc
* Generated by LTspice 24.1.9 for Windows.
V1 IN 0 3.3
R1 N003 0 2.37K
Rload OUT 0 0.625
C1 OUT 0 44µ
X§U1 0 IN N004 N001 N003 N002 OUT IN LTM4604
.tran 1.2m startup
.lib LTM4604.sub
.backanno
.end
