* C:\Users\adity\AppData\Local\LTspice\examples\ApplicationsCopy\LTM4661.asc
* Generated by LTspice 24.1.9 for Windows.
X§U1 IN N002 OUT N001 IN IN N003 N004 0 LTM4661
R1 N001 0 31.6K
V1 IN 0 3.3
C2 OUT 0 22µ x2
R2 OUT 0 2.5
.tran 14m startup
.lib LTM4661.sub
.backanno
.end
