* C:\Users\adity\AppData\Local\LTspice\examples\ApplicationsCopy\LTM4668.asc
* Generated by LTspice 24.1.9 for Windows.
V1 IN 0 12
C1 OUT1 0 47µ
R1 N002 0 90.9K
C3 OUT2 0 47µ
R2 N004 0 60.4K
C4 OUT3 0 47µ
R3 N003 0 40.2K
C5 OUT4 0 47µ
R4 N005 0 30.1K
C6 0 N001 4.7µ
Rload3 OUT3 0 1.27
Rload4 OUT4 0 1.5
Rload OUT1 0 0.83
Rload2 OUT2 0 1
X§U1 0 N001 IN IN IN IN IN 0 NC_01 NC_02 OUT1 N002 OUT2 N004 OUT3 N003 OUT4 N005 NC_03 NC_04 LTM4668
.tran 1m startup
.lib LTM4668.sub
.backanno
.end
