* C:\Users\adity\AppData\Local\LTspice\examples\ApplicationsCopy\LTM4660.asc
* Generated by LTspice 24.1.9 for Windows.
V1 IN 0 48
C1 N004 N007 10µ m=12
C2 N006 0 10µ m=12
C3 OUT 0 150µ
R1 0 N009 4.32K
C4 N008 0 10n
R2 N005 0 61.9K
R3 N003 0 100K
Rload OUT 0 0.499
C5 N002 0 0.47µ
X§U1 NC_01 NC_02 NC_03 NC_04 NC_05 N002 N008 N001 N003 N010 N005 OUT N009 N010 MP_06 NC_07 MP_08 MP_09 N001 N007 MP_10 MP_11 MP_12 MP_13 N006 N006 IN IN N004 MP_14 MP_15 MP_16 0 LTM4660
.tran 0 960m 958m startup
.lib LTM4660.sub
.backanno
.end
