* C:\Users\adity\AppData\Local\LTspice\examples\ApplicationsCopy\LTM4663.asc
* Generated by LTspice 24.1.9 for Windows.
R4 N002 0 49.9k
C2 TEC- 0 10µ Rser=2m
V1 VIN 0 5
V2 N004 0 SINE(1.25 200m 40 80m)
R2 N001 0 23.2k
X§U1 0 TEC- N003 NC_01 N004 TEC+ N003 N005 N001 VREF 0 VIN ITEC N005 N002 SW VTEC VIN VIN 0 TEC- LTM4663
RTEC TEC+ TEC- 1
.tran 0.2 startup
.lib LTM4663.sub
.backanno
.end
