* C:\Users\adity\AppData\Local\LTspice\examples\ApplicationsCopy\LTM4710-1.asc
* Generated by LTspice 24.1.9 for Windows.
V1 IN 0 3.3
R4 IN PG 100k
R1 N003 0 536k
R2 N005 IN 3.01Meg
R3 N006 IN 332k
C1 OUT 0 100µ m=4
Rload OUT 0 37.4m
X§U1 IN IN NC_01 N002 0 0 N003 PG N001 N004 NC_02 OUT OUT IN IN NC_03 IN N005 PG N001 NC_04 NC_05 OUT N004 IN IN NC_06 IN 0 PG N001 NC_07 NC_08 OUT N004 IN IN NC_09 IN N006 PG N001 NC_10 NC_11 OUT N004 N004 0 0 0 LTM4710-1
C2 OUT N002 68p
R5 N002 0 7.15k
.tran 0.65m startup
.lib LTM4710-1.sub
.backanno
.end
