* C:\Users\adity\AppData\Local\LTspice\examples\ApplicationsCopy\LTM4664.asc
* Generated by LTspice 24.1.9 for Windows.
V1 IN 0 48
R1 N002 IN 10m
C1 IN 0 2.2µ x2 ic=0
C2 N004 N005 10µ X8 ic=0
C4 INTVccS1 0 4.7µ
R2 N015 0 100K
C5 N017 0 0.47µ
R3 N016 0 40.2K
R4 N018 0 100K
C6 N020 0 0.47µ
R5 N019 0 60.4K
C8 N001 0 10µ X2 ic=0
C9 INTVccS2 0 4.7µ
R6 N021 0 4.53K
R7 N003 N021 100K
R8 N023 0 20K
R9 N001 N023 100K
C10 N008 0 100p
C11 N010 0 2.2n
Rload1 OUT1 0 60m
C13 N011 0 2.2n
C14 N009 0 100p
C15 OUT0 0 470µ X2 ic=0
Rload0 OUT0 0 40m
C7 N006 N007 10µ X6 ic=0
C16 Vdd33 0 1µ
C17 Vdd25 0 1µ
C18 INTVcc 0 4.7µ
R10 Vdd25 N013 14.3K
R14 N013 0 2.43K
R15 Vdd25 N012 14.3K
R16 N012 0 4.22K
C19 OUT0 0 100µ X2 Rser=9m ic=0
C12 OUT1 0 100µ X2 Rser=9m ic=0
C20 OUT1 0 470µ X2 ic=0
C3 N003 0 10µ X3 ic=0
R11 Vdd33 N014 10K
X§U1 OUT0 0 NC_01 NC_02 N011 N009 NC_03 NC_04 N001 N001 NC_05 N016 N015 INTVccS1 N017 NC_06 N014 N014 N022 0 N013 N012 0 NC_07 Vdd25 N021 NC_08 Vdd33 N008 N010 0 OUT1 NC_09 NC_10 NC_11 N019 OUT1 INTVcc N018 NC_12 0 OUT0 INTVccS2 N020 NC_13 NC_14 N014 NC_15 N002 IN N023 NC_16 N022 N005 N003 N004 N002 N003 N003 N007 N001 N006 N003 NC_17 LTM4664 VIN_ON=11.5 VIN_OFF=11 Vout_0=1.0 Vout_1=1.5 Ilim0_range=1 Ilim1_range=1 OC_limit0=1 OC_limit1=1 Mode_ll=1 Fault_response=0 Retry_delay=0.1m gm0=3m gm1=3m Rth0=10K Rth1=10K Sync=0 Freq=500K PHs_0=0 PHs_1=180 Ton0_delay=0.3m Ton0_rise=0.5m Ton1_delay=0.3m Ton1_rise=0.5m Toff0_delay=0.2m Toff0_fall=0.3m Toff1_delay=0.2m Toff1_fall=0.3m Vout0_range=0 Vout1_range=0 LowDCR=1
R12 N022 INTVccS1 10K
.tran 180m startup
* 12V
* 24V
.lib LTM4664.sub
.backanno
.end
