* C:\Users\adity\AppData\Local\LTspice\examples\ApplicationsCopy\LTM4640.asc
* Generated by LTspice 24.1.9 for Windows.
R2 vIN N002 150K
V1 vIN 0 12
C1 N003 0 5.1n
C2 N001 0 2.2µ
C3 vOUT 0 220µ m=4 Rser=4m
R5 N004 0 6.65k
Rload vOUT 0 75m
C7 vOUT N004 100p
X§U1 NC_01 NC_02 0 N004 N003 N005 N002 NC_03 N005 0 NC_04 vOUT vOUT 0 0 N001 vIN NC_05 N001 LTM4640
.tran 1m startup
.lib LTM4640.sub
.backanno
.end
