* C:\Users\adity\AppData\Local\LTspice\examples\ApplicationsCopy\LTM4653.asc
* Generated by LTspice 24.1.9 for Windows.
C1 OUT 0 68µ
C2 N002 0 4.7µ
V1 IN 0 48
R1 N008 0 124K
R2 N007 0 480K
R4 OUT 0 24
C4 N006 0 4.7µ
R3 OUT N006 100
C3 N009 N010 10n
R5 N010 0 499
R6 N001 N003 100K
R7 OUT N004 196K
X§U2 0 OUT N002 IN N002 0 NC_01 N003 N004 N005 N001 N008 OUT N007 N009 N006 N001 NC_02 NC_03 N007 N005 0 0 IN 0 LTM4653
.tran 1m startup
.softstart .1 ; shortens internal softstart time
.lib LTM4653.sub
.backanno
.end
