* C:\Users\adity\AppData\Local\LTspice\examples\ApplicationsCopy\LTM4638.asc
* Generated by LTspice 24.1.9 for Windows.
R2 IN N002 150K
R3 N002 0 100K
V1 IN 0 12
C1 N004 0 2n
C2 0 N001 2.2µ
C3 OUT 0 100µ
R4 OUT N003 100K
R5 0 N005 40.2K
R6 OUT 0 .1
X§U2 NC_01 NC_02 0 N005 N004 N006 N002 N003 N006 0 NC_03 OUT OUT 0 0 MP_04 IN MP_05 MP_06 MP_07 N001 MP_08 NC_09 N001 LTM4638
.tran 1m startup
.lib LTM4638.sub
.backanno
.end
