* C:\Users\adity\AppData\Local\LTspice\examples\ApplicationsCopy\LTM4602.asc
* Generated by LTspice 24.1.9 for Windows.
V1 IN 0 7
R1 N004 0 67K
R2 OUT N008 100K
Rload OUT 0 .25
X§U1 N001 N006 N002 N003 N005 N007 N008 N004 0 0 OUT IN LTM4602
.tran 2.5m startup
.lib LTM4602.sub
.backanno
.end
