* C:\Users\adity\AppData\Local\LTspice\examples\ApplicationsCopy\LTM4670.asc
* Generated by LTspice 24.1.9 for Windows.
V1 IN 0 3.3
R2 N002 0 100k
C2 N003 0 4.7n
C1 OUT1 0 100µ x2 Rser=5m
R3 IN N001 500K
R1 N005 0 60.4k
Rload1 OUT1 0 0.1
C3 N006 0 4.7n
C4 OUT2 0 100µ x2 Rser=5m
R4 IN N004 500K
R7 N008 0 43.2k
Rload2 OUT2 0 0.1
C5 N009 0 4.7n
R8 IN N007 500K
R10 N011 0 30.1k
Rload3 OUT3 0 0.12
C7 N012 0 4.7n
R11 IN N010 500K
Rload4 OUT4 0 0.15
C6 OUT3 0 100µ x2 Rser=5m
C8 OUT4 0 100µ x2 Rser=5m
X§U1 IN IN SW1 N002 0 0 IN N001 IN Comp1 N003 OUT1 OUT1 IN IN SW2 N005 IN N004 IN Comp2 N006 OUT2 OUT2 IN IN SW3 N008 IN N007 IN Comp3 N009 OUT3 OUT3 IN IN SW4 N011 IN N010 IN Comp4 N012 OUT4 OUT4 LTM4670
.tran 0.4m startup
.lib LTM4670.sub
.backanno
.end
