* C:\Users\adity\AppData\Local\LTspice\examples\ApplicationsCopy\LTM4650-2.asc
* Generated by LTspice 24.1.9 for Windows.
C1 N003 0 4.7µ
R1 0 N002 121K
V1 IN 0 12
R5 N005 0 90.9K
C5 N008 0 1n
Rload OUT 0 0.025
C3 N006 0 10n
C6 N005 N004 68p
C4 OUT 0 220µ X6 Rser=6m
X§U1 N008 N007 N005 0 N005 N007 N008 OUT NC_01 OUT 0 N004 N001 OUT N004 NC_02 NC_03 0 NC_04 MP_05 MP_06 MP_07 MP_08 NC_09 N003 IN MP_10 MP_11 MP_12 MP_13 NC_14 NC_15 0 0 N002 MP_16 MP_17 N001 LTM4650-2
R2 N007 N006 3.24k
.tran .5m startup
.lib LTM4650-2.sub
.backanno
.end
