* C:\Users\adity\AppData\Local\LTspice\examples\ApplicationsCopy\LTM4709.asc
* Generated by LTspice 24.1.9 for Windows.
V1 IN 0 1.3
V2 BIAS 0 3.3
C1 OUT1 0 22µ
C2 OUT2 0 22µ
C3 OUT3 0 22µ
R1 OUT1 0 0.267
R2 OUT2 0 0.333
R3 OUT3 0 0.3
X§U1 BIAS BIAS 0 0 PG1 VIOC1 OUT1 BIAS 0 OUT1 0 IN VREF1 BIAS IMON1 BIAS BIAS NC_01 0 NC_02 BIAS BIAS 0 PG2 PG3 OUT2 OUT3 BIAS BIAS 0 0 OUT2 OUT3 IN IN VREF2 VREF3 BIAS BIAS IMON2 IMON3 LTM4709 TA=25 Rth=42
.tran 0 5m 0
* 0.8V
* 1V
* 0.9V
.lib LTM4709.sub
.backanno
.end
