* C:\Users\adity\AppData\Local\LTspice\examples\ApplicationsCopy\LTM4707.asc
* Generated by LTspice 24.1.9 for Windows.
V1 vIN 0 12
R1 N001 0 287k
Rload vOUT 0 0.125
R3 vOUT N004 49.9k
C1 vOUT 0 100µ m=5 Rser=5m
R2 vOUT N002 100k
C2 N005 0 0.33µ
R4 N005 0 10k
X§U1 NC_01 NC_02 0 NC_03 vIN vOUT vIN vIN NC_04 NC_05 N005 N003 vOUT N004 N001 N002 N003 0 0 LTM4707
.tran 8m startup
.lib LTM4707.sub
.backanno
.end
