* C:\Users\adity\AppData\Local\LTspice\examples\ApplicationsCopy\LTM4712.asc
* Generated by LTspice 24.1.9 for Windows.
V1 IN 0 15
R1 IN N003 1Meg
R2 N003 0 365K
R3 INTVCC N008 100K
R4 N007 0 140K
C1 N009 0 4.7n
C2 INTVCC 0 2.2µ
R5 N002 0 9.09K
C5 N001 0 22µ x6
R6 N001 OUT 2m
R7 N001 N005 100
R8 OUT N006 100
C7 N005 N006 1µ
Rload1 OUT 0 4.8
C8 OUT 0 100µ x2
X§U1 0 IN N001 0 INTVCC NC_01 N008 0 NC_02 N007 N003 0 N001 NC_03 NC_04 NC_05 N009 N002 N004 N004 N005 N006 NC_06 LTM4712
.tran 3m startup
.lib LTM4712.sub
.backanno
.end
