* C:\Users\adity\AppData\Local\LTspice\examples\ApplicationsCopy\LTM4705.asc
* Generated by LTspice 24.1.9 for Windows.
R8 FB2 0 90.9k
R9 FB1 0 19.1k
V1 IN 0 12
C1 N004 0 1n
C2 OUT1 0 47µ X2
C3 OUT1 0 10µ
C4 OUT2 0 47µ X2
C5 OUT2 0 10µ
C6 OUT1 FB1 100p
C7 OUT2 FB2 100p
C8 N003 0 1n
R1 IntVcc N002 100k
R2 N001 IntVcc 100k
R3 OUT2 0 0.2
R4 OUT1 0 0.5
X§U1 N001 MP_01 IN 0 NC_02 IN 0 N002 FB2 N004 COMP2 MP_03 OUT2 MP_04 IN MP_05 MP_06 MP_07 IntVcc MP_08 IN MP_09 OUT1 MP_10 MP_11 COMP1 N003 FB1 0 LTM4705
.tran 0.8m startup
* 2.5V
* 1V
.lib LTM4705.sub
.backanno
.end
