* C:\Users\adity\AppData\Local\LTspice\examples\ApplicationsCopy\LTM8042-1.asc
* Generated by LTspice 24.1.9 for Windows.
V1 IN 0 16
R1 N003 0 33.2K
C1 N001 0 4.7µ
D1 N002 0 LXHL-BW02 N=8
X§U1 IN IN IN N003 0 NC_01 IN NC_02 MP_03 MP_04 0 N002 N001 NC_05 MP_06 MP_07 0 LTM8042-1
.model D D
.lib C:\Users\adity\AppData\Local\LTspice\lib\cmp\standard.dio
.tran 1m startup
.lib LTM8042-1.sub
.backanno
.end
