* C:\Users\adity\AppData\Local\LTspice\examples\ApplicationsCopy\LTM8067.asc
* Generated by LTspice 24.1.9 for Windows.
V1 IN 0 24
C1 OUT 0 22µ Rser=30m
R1 N001 0 8.25K
Rload OUT 0 10
X§U1 IN 0 IN 0 OUT MP_01 N001 LTM8067
.tran 7m startup
.lib LTM8067.sub
.backanno
.end
