* C:\Users\adity\AppData\Local\LTspice\examples\ApplicationsCopy\LTM8078.asc
* Generated by LTspice 24.1.9 for Windows.
Rload2 OUT2 0 2.5
Rload1 OUT1 0 1.2
C25 OUT2 0 1µ
V1 IN 0 12
R1 N003 0 249k
C1 N005 0 1n
C2 N006 0 1n
C3 OUT1 0 47µ x2 Rser=10m
C4 OUT2 0 47µ x2 Rser=10m
R3 0 N004 46.4k
R2 N007 0 78.7k
X§U1 IN 0 NC_01 NC_02 NC_03 NC_04 OUT1 OUT2 N002 OUT2 N002 N003 N005 N006 N007 IN N004 N001 LTM8078
V2 N001 0 PULSE(0 3.3 0.5m 1n 1n 1m 1.5m 1)
.tran 1.6m startup
.lib LTM8078.sub
.backanno
.end
