* C:\Users\adity\AppData\Local\LTspice\examples\ApplicationsCopy\LTM8071.asc
* Generated by LTspice 24.1.9 for Windows.
V1 IN 0 22
R1 N002 0 56.2K
C1 N003 0 1n
R2 0 N004 102K
C2 OUT 0 100µ
R3 OUT 0 1
X§U2 N001 N001 IN IN N004 N003 NC_01 OUT NC_02 N002 NC_03 0 LTM8071
.tran 10m startup
.lib LTM8071.sub
.backanno
.end
