* C:\Users\adity\AppData\Local\LTspice\examples\ApplicationsCopy\LTM8051.asc
* Generated by LTspice 24.1.9 for Windows.
V1 IN 0 12
C1 OUT1 0 47µ
C2 N003 0 1n
R1 N005 0 47.5K
C3 N009 0 1n
R2 N007 0 200K
RLOAD1 OUT1 0 5
R4 N011 0 40K
R5 N012 0 100K
C4 OUT2 0 100µ
C5 N004 0 1n
R6 N006 0 78.7K
C6 N010 0 1n
R7 N008 0 118K
RLOAD2 OUT2 0 3.3
C7 OUT4 0 100µ
C8 OUT3 0 100µ
RLOAD4 OUT4 0 1.8
RLOAD3 OUT3 0 2.5
X§U2 IN OUT2 NC_01 NC_02 NC_03 NC_04 OUT1 OUT4 N001 OUT1 N001 N005 N003 N009 N007 OUT2 N011 IN IN IN 0 N002 N002 N004 N012 MP_05 MP_06 NC_07 N006 IN NC_08 OUT3 N010 N008 NC_09 NC_10 LTM8051
.tran 0.6m startup
.lib LTM8051.sub
.backanno
.end
