* C:\Users\adity\AppData\Local\LTspice\examples\ApplicationsCopy\LTM8002.asc
* Generated by LTspice 24.1.9 for Windows.
V1 IN 0 12
R1 N002 0 41.2K
R2 N001 0 24.3K
C1 N003 0 1n
C2 OUT 0 22µ
Rload OUT 0 10
X§U1 NC_01 IN N002 IN N003 0 NC_02 OUT N001 0 LTM8002
.tran 1.2m startup
.lib LTM8002.sub
.backanno
.end
