* C:\Users\adity\AppData\Local\LTspice\examples\ApplicationsCopy\LTM8024.asc
* Generated by LTspice 24.1.9 for Windows.
V1 vIN 0 20
C2 vOUT1 0 47µ X2 Rser=20m
R2 vOUT1 0 5
R3 0 N003 316K
R4 N002 0 316K
C3 0 N005 1n
C4 0 N004 1n
R5 N006 0 140K
Vbias N007 0 PWL(0 2.5 1m 5)
V2 N001 0 5
R6 PG1 N001 100k
R7 N001 PG2 100k
C1 vOUT2 0 47µ X2 Rser=20m
R1 vOUT2 0 5
X§U2 N006 0 SYNC vIN NC_01 NC_02 vOUT1 N002 N007 N004 vIN NC_03 NC_04 vOUT2 N003 N005 CLKOUT vIN vIN PG1 PG2 LTM8024
.tran 1m
.lib LTM8024.sub
.backanno
.end
