* C:\Users\adity\AppData\Local\LTspice\examples\ApplicationsCopy\LTM8080.asc
* Generated by LTspice 24.1.9 for Windows.
V1 IN 0 12
R1 0 N001 33.2k
C1 N002 0 1n
R2 N005 0 33.2k
C2 N005 0 200n
R3 N006 0 33.2k
C3 N006 0 200n
C4 VOUT1 0 10µ
C5 VOUT2 0 10µ
R6 VOUT1 N003 100k
R7 N003 0 10k
C6 Vbus 0 10µ
C7 IN 0 10µ
R4 VOUT1 0 6.6
R5 VOUT2 0 6.6
X§U1 N001 NC_01 N002 IN IN Vbus VOUT2 NC_02 N003 N005 VOUT1 VOUT1 0 N006 VOUT2 N004 NC_03 LTM8080
R8 VOUT2 N004 100k
R9 N004 0 10k
.tran 1m startup
* Both channels are configured for fast start-up. If fast-start up is not needed, \nconnect PGFBn pin to Vbus for slow start-up/reduced component count.
.lib LTM8080.sub
.backanno
.end
