* C:\Users\adity\AppData\Local\LTspice\examples\ApplicationsCopy\LTM8083.asc
* Generated by LTspice 24.1.9 for Windows.
V1 IN 0 20
R1 OUT N001 100k
R2 N001 0 9.09k
C1 OUT 0 10µ V=16 Irms=13.8 Rser=0.00468332 Lser=0 mfg="KEMET" pn="C1210C106K4RAC" type="X7R"
R3 N002 0 40.2k
Rload OUT 0 24
X§U1 IN MP_01 IN NC_02 IN 0 0 MP_03 MP_04 NC_05 OUT OUT NC_06 MP_07 NC_08 N001 NC_09 N002 0 MP_10 OUT MP_11 MP_12 MP_13 MP_14 MP_15 MP_16 MP_17 0 LTM8083
.tran 1.2m startup
.lib LTM8083.sub
.backanno
.end
