* C:\Users\adity\AppData\Local\LTspice\examples\ApplicationsCopy\LTM8047A.asc
* Generated by LTspice 24.1.9 for Windows.
V1 IN 0 10
C1 N001 0 4.7µ
R1 N003 0 6.19K
C2 OUT 0 22µ
Rload OUT 0 32
X§U1 0 OUT 0 N003 IN N001 IN N002 LTM8047
.tran 2.5m startup
.lib LTM8047.sub
.backanno
.end
