* C:\Users\adity\AppData\Local\LTspice\examples\ApplicationsCopy\LTM8068.asc
* Generated by LTspice 24.1.9 for Windows.
V1 IN 0 24
C2 OUT1 0 22µ Rser=30m
R2 N001 0 162K
X§U1 IN 0 IN 0 OUT1 OUT2 N002 N001 MP_01 NC_02 LTM8068
R1 N002 0 7.32K
C1 OUT2 0 10µ Rser=5m
Rload OUT2 0 16.67
.tran 7m startup
.lib LTM8068.sub
.backanno
.end
