* C:\Users\adity\AppData\Local\LTspice\examples\ApplicationsCopy\LTM8021.asc
* Generated by LTspice 24.1.9 for Windows.
X§U1 IN IN 0 N001 OUT OUT LTM8021
V1 IN 0 20
R1 N001 0 19.1K
Rload OUT 0 10
C1 OUT 0 2.2µ
.tran 500u startup
.lib LTM8021.sub
.backanno
.end
