* C:\Users\adity\AppData\Local\LTspice\examples\ApplicationsCopy\LTM8060.asc
* Generated by LTspice 24.1.9 for Windows.
X§U1 IN IN IN N001 N002 N011 N012 OUT1 OUT2 OUT3 0 N003 N004 N013 N014 N008 N009 N018 N019 N010 N020 N007 N017 N005 N006 N015 N016 NC_01 NC_02 NC_03 NC_04 NC_05 NC_06 NC_07 NC_08 OUT4 LTM8060
V1 IN 0 12
R1 N003 0 47.5K
C1 OUT1 0 47µ m=2 Rser=7m
C2 N005 0 1n
R2 N010 0 28K
R3 N004 0 78.7K
Rload1 OUT1 0 5
Rload2 OUT2 0 3.3
C3 OUT1 N003 100p
R4 N008 OUT1 100K
R5 N001 IN 1Meg
R6 N011 IN 1Meg
R7 N018 OUT3 100K
R8 N013 0 280K
Rload3 OUT3 0 1.5
C4 OUT3 N013 220p
C5 0 N006 1n
C6 OUT2 N004 100p
R9 OUT4 N019 100K
R10 OUT2 N009 100k
C7 0 N007 1µ
C8 0 N017 1µ
R11 IN N002 1Meg
C9 N015 0 1n
C10 0 N016 1n
R12 N020 0 100K
R13 N014 0 499K
Rload4 OUT4 0 1.2
C11 OUT4 N014 680p
R14 IN N012 1Meg
C12 OUT2 0 47µ m=2 Rser=7m
C13 OUT3 0 47µ m=2 Rser=7m
C14 OUT4 0 47µ m=2 Rser=7m
.tran 1m startup
* fsw=1.2MHz
* fsw=400KHz
.lib LTM8060.sub
.backanno
.end
