* C:\Users\adity\AppData\Local\LTspice\examples\ApplicationsCopy\LTM8040.asc
* Generated by LTspice 24.1.9 for Windows.
X§U1 0 N001 N001 N003 N004 N004 N002 N006 N005 LTM8040
V1 N001 0 24
R1 N003 0 215K
D1 N002 0 LXK2-PW14 N=2
.model D D
.lib C:\Users\adity\AppData\Local\LTspice\lib\cmp\standard.dio
.tran 500u startup
.lib LTM8040.sub
.backanno
.end
