* C:\Users\adity\AppData\Local\LTspice\examples\ApplicationsCopy\LTM8053.asc
* Generated by LTspice 24.1.9 for Windows.
V1 IN 0 24
R1 N003 0 41.2K
Rload OUT 0 3
C1 OUT 0 100µ Rser=10m
X§U1 N001 IN N001 IN NC_01 N003 N002 OUT 0 0 N004 NC_02 LTM8053
R2 0 N004 60.4K
C2 N002 0 0.001µ
.tran 1m startup
.lib LTM8053.sub
.backanno
.end
