* C:\Users\adity\AppData\Local\LTspice\examples\ApplicationsCopy\LTM8003.asc
* Generated by LTspice 24.1.9 for Windows.
V1 IN 0 24
R1 N002 0 41.2K
Rload OUT 0 3
C1 OUT 0 47µ
R2 0 N003 24.3K
C2 N001 0 1n
X§U2 0 NC_01 NC_02 N001 N002 IN N003 IN OUT 0 LTM8003
.tran 1m startup
* 1MHz
.lib LTM8003.sub
.backanno
.end
