* C:\Users\adity\AppData\Local\LTspice\examples\ApplicationsCopy\LTM8020.asc
* Generated by LTspice 24.1.9 for Windows.
X§U1 IN IN 0 N001 OUT OUT LTM8020
V1 IN 0 25
R1 N001 0 165K
Rload OUT 0 25
C1 OUT 0 10µ
.tran 1m startup
.lib LTM8020.sub
.backanno
.end
