* C:\Users\adity\AppData\Local\LTspice\examples\ApplicationsCopy\LTM8028.asc
* Generated by LTspice 24.1.9 for Windows.
X§U1 OUT N003 0 IN N002 N002 0 NC_01 OUT N002 NC_02 N004 N005 N001 NC_03 LTM8028
R1 N005 0 165K
C1 N004 0 .01µ
V1 IN 0 24
R2 IN N001 402K
C2 OUT 0 137µ Rser=5m
Rload OUT 0 .24
C3 N003 0 570µ Rser=10m
.tran 2.5m startup
.lib LTM8028.sub
.backanno
.end
