* C:\Users\adity\AppData\Local\LTspice\examples\ApplicationsCopy\LTM8061-8.4.asc
* Generated by LTspice 24.1.9 for Windows.
V1 IN 0 12
C1 OUT 0 .1m
C3 N001 0 4.7µ
X§U1 N001 N001 N001 N002 N003 0 N005 N004 OUT IN OUT MP_01 0 LTM8061-8.4
.tran 3m startup
.lib LTM8061-8.4.sub
.backanno
.end
