* C:\Users\adity\AppData\Local\LTspice\examples\ApplicationsCopy\LTM8046.asc
* Generated by LTspice 24.1.9 for Windows.
V1 IN 0 12
C1 N001 0 1µ
R1 N003 0 8.45K
C2 OUT 0 100µ Rser=10m
Rload OUT 0 12.5
X§U1 0 OUT 0 N003 IN N001 IN N002 LTM8046
.tran 2.5m startup
.lib LTM8046.sub
.backanno
.end
