* C:\Users\adity\AppData\Local\LTspice\examples\ApplicationsCopy\LTM8062.asc
* Generated by LTspice 24.1.9 for Windows.
V1 IN 0 12
C1 OUT 0 .1m
X§U1 IN IN IN NC_01 NC_02 0 N001 NC_03 OUT MP_04 OUT IN 0 LTM8062
R1 OUT N001 274K
R2 N001 0 2.87Meg
.tran 2m startup
.lib LTM8062.sub
.backanno
.end
