* C:\Users\adity\AppData\Local\LTspice\examples\ApplicationsCopy\LTM8058.asc
* Generated by LTspice 24.1.9 for Windows.
V1 IN 0 16
C1 N001 0 4.7µ
R1 N005 0 6.19K
C2 OUT1 0 22µ
R2 N004 0 162K
C3 OUT2 0 10µ
Rload2 OUT2 0 64
Rload1 OUT1 0 64
X§U1 0 OUT1 0 N005 IN N001 IN N003 N002 OUT2 N004 LTM8058
.tran 2m startup
.lib LTM8058.sub
.backanno
.end
