* C:\Users\adity\AppData\Local\LTspice\examples\ApplicationsCopy\LTP8800-1A.asc
* Generated by LTspice 24.1.9 for Windows.
V4 N005 0 PWL(0 0 1u 3.3)
V5 IN 0 PWL(0 0 20u 54)
V6 N001 0 PWL(0 0 1u 7)
C1 OUT 0 {1*100u} rser=2.9m m = 8
C2 OUT 0 560µ Rser=3m m=10
R4 OUT 0 6.67m
R11 OUT N002 1k tol=500
R12 N002 0 2k
C4 N002 N006 100p
R6 0 N006 7.5
R2 N007 0 10k
S1 0 N004 N003 0 SSW
V1 N003 0 PULSE(0 5 400u 1u 1u 100u 1m 1)
R3 OUT N004 19m
X§U2 N001 NC_01 IN OUT N002 N006 N007 N005 0 LTP8800-1A VIN_ON=40 VIN_OFF=30 TON_RISE=100u TON_DELAY=10u VOUT_SCALE_LOOP=(2/3) VOUT_COMMAND=750m NM_DIGFILT_POLE_SETTING=72 NM_DIGFILT_ZERO_SETTING=223 NM_DIGFILT_HF_GAIN_SETTING=149 NM_DIGFILT_LF_GAIN_SETTING=24 FREQUENCY_SWITCH=1000k
.tran 600u startup
.model SSW SW(ron=1m roff=100Meg Vt=1 Vh=10m)
* 112.5A static load
* 37.5A switched load
* *********************************************************************************************************************\n**************************************************READ ME *******************************************************\n*********************************************************************************************************************\n \nThis model does include PMBus functionality.  Many parameters set by PMBus are configured by right-clicking on the model.\nHowever, please be aware that:\n-These parameters can only be set before a simulation is performed.  \n-The argument for each parameter is a single decimal number (There is no need to separately set exponent and mantissa, as in VOUT_COMMAND, for example)\n-As a consequence of the above, parameters may be set with a precision that is not realisable in the actual hardware.  \n-There is no error checking for parameters that are out-of-range.\n \n*********************THE FOLLOWING PARAMETERS ARE AVAILABLE TO CHANGE*********************\n \nNM_DIGFILT_POLE_SETTING\nNM_DIGFILT_ZERO_SETTING\nNM_DIGFILT_HF_GAIN_SETTING\nNM_DIGFILT_LF_GAIN_SETTING\nFREQUENCY_SWITCH\nVIN_ON\nVIN_OFF\nTON_RISE\nTON_DELAY\nVOUT_SCALE_LOOP\nVOUT_COMMAND\n \n*********************************************OTHER FUNCTIONS THAT ARE NOT MODELED *******************************************\n \n-Influence of voltage feed-forward (VFF pin) on the control loop\n-fault handling\n-over-current conditions and regulation\n-startup behaviour (given the timescales involved, it is also generally impractical to simulate this)
* 750mV at 150A
.lib LTP8800-1A.sub
.backanno
.end
