* C:\Users\adity\AppData\Local\LTspice\examples\ApplicationsCopy\MAX16545C.asc
* Generated by LTspice 24.1.9 for Windows.
V1 IN 0 12
C2 OUT 0 1500µ
R1 N002 0 2.26k
R5 N007 0 93.1K
C1 OUT N003 0.22µ
S1 0 OUT N001 0 SHORT
V3 N001 0 PULSE(0 1 240m 1m 1m 10m)
R6 ILOAD 0 4.42k
R4 IN N002 20k
C5 0 N004 1µ
C3 ILOAD 0 10n
C4 0 N005 47n
V2 N010 0 5
R2 N006 N010 10K
R3 N008 N010 10K
R7 N009 0 10K
X§U1 IN N008 0 N004 N009 N002 N003 OUT N005 N006 N007 ILOAD MAX16545C D012=0 D011=0 D09=0 D08=0 D07=0 D06=0 D05=0 DD5=0 DD4=1
.model SHORT SW(Ron=10m Roff=1K Vt=.5 Vh=-.4)
.tran 300m startup
.lib MAX16545C.sub
.backanno
.end
