* C:\Users\adity\AppData\Local\LTspice\examples\ApplicationsCopy\MAX17640B.asc
* Generated by LTspice 24.1.9 for Windows.
X§U1 0 vIN vIN N002 vOUT NC_01 NC_02 N001 MAX17640B
V1 vIN 0 12
C1 N002 0 1µ
L1 N001 vOUT 68µ Rser=0.4
C2 vOUT 0 22µ
Rload vOUT 0 12.5
.tran 5m startup
.lib MAX17640B.sub
.backanno
.end
