* C:\Users\adity\AppData\Local\LTspice\examples\ApplicationsCopy\MAX16171.asc
* Generated by LTspice 24.1.9 for Windows.
C1 IN 0 0.1µ
V1 IN 0 12
C2 OUT 0 100µ
X§U1 N002 IN IN IN 0 OUT MAX16171
M§Q1 OUT N002 IN IN IPD068N10N3
S1 0 OUT N001 0 SCSW
V2 N001 0 PWL(0 0 6m 0 +1m 1)
.model NMOS NMOS
.model PMOS PMOS
.lib C:\Users\adity\AppData\Local\LTspice\lib\cmp\standard.mos
.tran 20m startup
.model SCSW SW(Ron=2 Roff=200 Vt=.5 Vh=-.4)
.lib MAX16171.sub
.backanno
.end
