* C:\Users\adity\AppData\Local\LTspice\examples\ApplicationsCopy\MAX17553A.asc
* Generated by LTspice 24.1.9 for Windows.
V1 vIN 0 24
L1 N001 vOUT 150µ Rser=2
C2 vOUT 0 10µ
Rload vOUT 0 66
R1 vIN N002 3.32Meg
R3 N002 N004 953k
X§U1 0 vIN N002 N004 vOUT N001 N003 N005 MAX17553A
R2 N002 0 287k
R4 vOUT N003 100k
R7 N005 0 402k
.tran 4m startup
.lib MAX17553A.sub
.backanno
.end
