* C:\Users\adity\AppData\Local\LTspice\examples\ApplicationsCopy\MAX17555A.asc
* Generated by LTspice 24.1.9 for Windows.
V1 vIN 0 12
L1 N001 vOUT 180µ Rser=2.5
C1 vOUT 0 22µ
Rload vOUT 0 66
R1 vIN N002 3.32Meg
R2 N002 0 665k
R3 vOUT N003 100k
X§U1 0 vIN N002 0 vOUT N001 N003 MAX17555A
.tran 1.6m startup
.lib MAX17555A.sub
.backanno
.end
