* C:\Users\adity\AppData\Local\LTspice\examples\ApplicationsCopy\MAX14662.asc
* Generated by LTspice 24.1.9 for Windows.
V1 vA 0 SINE(0 5.5 20)
R1 vB 0 100
V2 vIN 0 PULSE(0 2.5 20n 20n 20n 150m 300m)
X§U1 vIN vB vA 0 N001 MAX14662
V3 N001 0 3
C1 vB 0 33p
.tran 1
* Note:\nSwitch shown for a logic 0 input\nSPI and I2C not included\nOnly one channel modeled
.lib MAX14662.sub
.backanno
.end
