* C:\Users\adity\AppData\Local\LTspice\examples\ApplicationsCopy\MAX16170.asc
* Generated by LTspice 24.1.9 for Windows.
M§Q2 N002 N004 OUT OUT IPD068N10N3
M§Q1 N001 N008 IN IN IPD068N10N3
R6 N013 N012 20k
R7 N013 N014 20k
R3 N006 N005 47
C3 N006 0 33n
C7 OUT 0 1000µ
V1 IN 0 24
R1 N002 N001 0.001
V2 N013 0 5
R13 N004 N005 10
R2 N015 0 221k
R9 N017 0 30k
R4 N018 N020 499k
R5 N020 0 4.02k
R10 N018 N019 2.1Meg
R11 N019 0 90.9k
C4 N016 0 330p
C1 N001 N009 0.1µ
C2 N001 0 0.1µ
R8 N001 N010 1k
V4 N011 0 5
X§U1 N008 IN N009 N011 0 N001 N002 OUT N005 N010 N015 0 NC_01 N012 N014 N017 N016 N018 N020 N019 MAX16170
S1 0 OUT N003 0 LOAD
V3 N003 0 PWL(0 0 1u 0 70m 0 +1u 1 +30m 1 +1u 0 460m 0 +1u 1)
S2 0 OUT N007 0 SHORT
V6 N007 0 PWL(0 0 1u 0 90m 0 +1u 1 +500u 1 +1u 0)
.model NMOS NMOS
.model PMOS PMOS
.lib C:\Users\adity\AppData\Local\LTspice\lib\cmp\standard.mos
.tran 0 500m startup
.model LOAD SW(Ron=2 Roff=16 Vt=.5 Vh=-.4)
.model SHORT SW(Ron=650m Roff=1meg Vt=.5 Vh=-.4)
.lib MAX16170.sub
.backanno
.end
