* C:\Users\adity\AppData\Local\LTspice\examples\ApplicationsCopy\MAX17523.asc
* Generated by LTspice 24.1.9 for Windows.
V1 IN 0 24
C1 OUT 0 150µ
S1 0 OUT N001 0 SHORT
V2 N001 0 PULSE(0 1 70m 1m 1m 100m)
R1 N005 N004 20k
R2 0 N006 20k
R3 N008 0 6.19k
V3 N005 0 5
V4 N002 0 2
R4 IN N003 2.1Meg
R5 N003 0 200k
R6 N006 IN 499k
X§U1 IN N008 0 IN N002 N004 0 OUT N003 N006 0 N007 N007 0 MAX17523
.model SHORT SW(Ron=4 Roff=100K Vt=.5 Vh=-.4)
.tran 0.8 startup
.lib MAX17523.sub
.backanno
.end
