* C:\Users\adity\AppData\Local\LTspice\examples\ApplicationsCopy\MAX14575C.asc
* Generated by LTspice 24.1.9 for Windows.
V1 IN 0 5
C1 OUT 0 150µ
S1 0 OUT N001 0 SHORT
V4 N001 0 PULSE(0 1 10m 1m 1m 30m)
R3 N004 N003 20K
R1 N005 N006 52.3K
V3 N004 0 5
V2 N002 0 2
R2 N006 0 348
X§U1 IN N005 0 N003 N002 OUT MAX14575C
.model SHORT SW(Ron=0.05 Roff=1K Vt=.5 Vh=-.4)
.tran 50m startup
.lib MAX14575C.sub
.backanno
.end
