* C:\Users\adity\AppData\Local\LTspice\examples\ApplicationsCopy\MAX15068.asc
* Generated by LTspice 24.1.9 for Windows.
M§Q3 N002 N004 OUT OUT Si7386DP
M§Q1 N001 N008 IN1 IN1 Si7386DP
C1 IN1 N007 .1µ
R6 N001 N012 100K
R7 N001 N013 100K
R3 N005 N006 47
R2 N005 N004 10
C3 N006 0 .015µ
C6 0 IPMON 560p
C2 IN2 N009 .1µ
R5 N011 N001 137K
R4 0 N011 20K
C4 N011 0 .01µ
C5 N014 0 .1µ
C7 OUT 0 100µ
V1 IN1 0 PWL(0 0 10u 0 +1u 11)
V2 IN2 0 PWL(0 0 10u 0 +1u 12)
R1 N002 N001 .006
M§Q2 N001 N010 IN2 IN2 Si7386DP
S1 0 OUT N003 0 SCSW
V3 N003 0 PWL(0 0 300m 0 +1m 1 +10m 1 +1m 0)
C8 N015 0 .1µ
X§U1 N002 N001 IN1 N014 0 IN2 N010 N009 IPMON N013 N012 0 N015 0 N011 NC_01 OUT N005 N007 N008 MAX15068
.model NMOS NMOS
.model PMOS PMOS
.lib C:\Users\adity\AppData\Local\LTspice\lib\cmp\standard.mos
.tran 1600m
.model SCSW SW(Ron=10m Roff=6 Vt=.5 Vh=-.4)
.lib MAX15068.sub
.backanno
.end
