* C:\Users\adity\AppData\Local\LTspice\examples\ApplicationsCopy\MAX17500.asc
* Generated by LTspice 24.1.9 for Windows.
M§Q1 N006 N007 N012 N012 IRFH5020
R1 N013 0 10K
R2 N008 0 8.2K
R3 OUT N008 25K
L1 N006 IN 35µ Rpar=3K
D1 N003 OUT MBRS360
R4 N010 N009 75K
C2 N009 N008 3.9n
V1 IN 0 25
R5 N004 0 10K
R6 IN N004 105K
R7 N012 0 0.6
R8 IN N001 1K
C6 N001 0 1µ
D2 N002 N001 ES1D
L2 N003 0 1.6µ Rpar=1K
Rload OUT 0 3.333
C1 OUT 0 68µ
L3 N002 0 35µ Rpar=1K
C4 IN 0 1µ
C3 N005 0 0.22µ
R9 N013 N014 750
C5 N014 0 0.1µ
C7 N010 N008 100p
R10 N012 N011 1K
C8 N011 0 0.1n
X§U1 N010 N008 NC_01 N013 0 N011 N007 N005 N004 N001 MAX17500
.model D D
.lib C:\Users\adity\AppData\Local\LTspice\lib\cmp\standard.dio
.model NMOS NMOS
.model PMOS PMOS
.lib C:\Users\adity\AppData\Local\LTspice\lib\cmp\standard.mos
.tran 30m startup
K1 L1 L2 L3 1
.lib MAX17500.sub
.backanno
.end
