* C:\Users\adity\AppData\Local\LTspice\examples\ApplicationsCopy\MAX14779.asc
* Generated by LTspice 24.1.9 for Windows.
V1 +V 0 5
V2 VL 0 3.3
V3 vA1 0 25
V4 vEN 0 3.3
R1 vCOM 0 10k
C1 vCOM 0 15p
C2 vVP 0 10n
C3 vVN 0 10n
X§U1 vEN vCOM vA1 VL vVP vVN +V 0 vSA vA2 MAX14779
V5 vA2 0 5
V6 vSA 0 PULSE(0 3.3 5m 20n 20n 5m 10m)
.tran 30m
* Note:\nSwitch shown for a logic 0 input\nOnly one channel included\nCharge Injection not included
.lib MAX14779.sub
.backanno
.end
