* C:\Users\adity\AppData\Local\LTspice\examples\ApplicationsCopy\MAX17640C.asc
* Generated by LTspice 24.1.9 for Windows.
X§U1 0 vIN vIN N003 N002 NC_01 NC_02 N001 MAX17640C
V1 vIN 0 12
C1 N003 0 1µ
L1 N001 vOUT 33µ Rser=0.42
C2 vOUT 0 22µ
R1 vOUT N002 133k
R2 N002 0 75k
Rload vOUT 0 6.34
.tran 5m startup
.lib MAX17640C.sub
.backanno
.end
