* C:\Users\adity\AppData\Local\LTspice\examples\ApplicationsCopy\MAX17553C.asc
* Generated by LTspice 24.1.9 for Windows.
V1 vIN 0 24
L1 N001 vOUT 220µ Rser=3.7
C2 vOUT 0 4.7µ
R5 vOUT N005 698k
R6 N005 0 49.9k
Rload vOUT 0 240
R1 vIN N002 3.32Meg
R3 N002 N004 953k
X§U1 0 vIN N002 N004 N005 N001 N003 N006 MAX17553C
R2 N002 0 287k
R4 vOUT N003 100k
R7 N006 0 118k
.tran 4m startup
.lib MAX17553C.sub
.backanno
.end
