* C:\Users\adity\AppData\Local\LTspice\examples\ApplicationsCopy\MAX17612C.asc
* Generated by LTspice 24.1.9 for Windows.
V1 IN 0 48
C2 OUT 0 15µ
S1 0 OUT N001 0 SHORT
V3 N001 0 PULSE(0 1 70m 1m 1m 100m)
R6 N004 N003 20K
R8 N006 0 1.2K
R7 N004 N005 20K
V2 N004 0 5
V4 N002 0 2
X§U1 IN N006 0 NC_01 N002 N003 N005 OUT MAX17612C
.model SHORT SW(Ron=24 Roff=100K Vt=.5 Vh=-.4)
.tran 1.25 startup
.lib MAX17612C.sub
.backanno
.end
