* C:\Users\adity\AppData\Local\LTspice\examples\ApplicationsCopy\MAX17291B.asc
* Generated by LTspice 24.1.9 for Windows.
V1 IN 0 3.6
L1 IN N001 10µ
R5 N002 0 402K
C3 OUT 0 4.7µ
R3 OUT N002 3.48Meg
R4 OUT 0 1.2K
X§U2 0 IN IN N001 OUT N002 MAX17291B
.tran 10m startup
.lib MAX17291B.sub
.backanno
.end
