* C:\Users\adity\AppData\Local\LTspice\examples\ApplicationsCopy\MAX17760.asc
* Generated by LTspice 24.1.9 for Windows.
V1 IN 0 24
L1 N001 OUT 56µ Rser=0.48
C2 OUT 0 5.6µ Rser=4.6m
Rload OUT 0 {5/0.3}
C3 N003 0 5.6n
R1 OUT N005 95.3k
R2 N005 0 18.2k
R4 N004 0 69.8k
C1 Vcc 0 1µ
R3 Vcc N006 10k
R5 OUT N002 22
C4 N002 0 100n
X§U1 0 IN EN/UVLO N002 N005 0 N006 N001 N003 N004 Vcc 0 MAX17760
.tran 3.5m startup
.lib MAX17760.sub
.backanno
.end
