* C:\Users\adity\AppData\Local\LTspice\examples\ApplicationsCopy\MAX14774.asc
* Generated by LTspice 24.1.9 for Windows.
V1 +V 0 5
V2 VL 0 3.3
V3 vA 0 10
V4 vEN 0 PULSE(0 3.3 10n 20n 20n 5m 10m)
R1 vB 0 10k
C1 vB 0 15p
X§U1 vEN vB vA VL vVP vVN +V 0 MAX14774
C2 vVP 0 10n
C3 vVN 0 10n
.tran 30m
* Note:\nSwitch shown for a logic 0 input\nOnly one channel included\nCharge Injection not included
.lib MAX14774.sub
.backanno
.end
