* C:\Users\adity\AppData\Local\LTspice\examples\ApplicationsCopy\MAX14783E.asc
* Generated by LTspice 24.1.9 for Windows.
X§U1 ROR N006 N006 DIF 0 N008 N003 N001 MAX14783E
V1 N001 0 3.3
C1 ROR 0 15p
L1 N004 N003 50n Rser=10
C2 N003 N008 100p
C3 N004 N010 100p
C4 N005 N009 100p
L2 N005 N004 50n Rser=10
L3 N010 N008 50n Rser=10
L4 N009 N010 50n Rser=10
V2 DIF 0 PULSE(0 3.3 .1u 4n 4n 42n 100n 10)
V3 N006 0 PWL(0 3.3 1.2u 3.3 +10n 0)
X§U2 ROF N007 N007 DIR COM N009 N005 N002 MAX14783E
V4 N002 COM 3.3
V8 N007 COM PWL(0 0 1.2u 0 +10n 3.3)
V9 DIR COM PULSE(0 3.3 1.5u 4n 4n 42n 100n 10)
C5 ROF COM 15p
V5 COM 0 SINE(0 20 1Meg)
R1 ROR 0 1Meg
R2 ROF COM 1Meg
.tran 3u
* Twisted pair
* Forward transmission from DIF to ROF  followed by\nreverse transmission from DIR to ROR
.lib MAX14783E.sub
.backanno
.end
