* C:\Users\adity\AppData\Local\LTspice\examples\ApplicationsCopy\MAX17555C.asc
* Generated by LTspice 24.1.9 for Windows.
V1 vIN 0 24
L1 N001 vOUT 270µ Rser=1.7
C2 vOUT 0 10µ
R5 vOUT N005 698k
R6 N005 0 49.9k
Rload vOUT 0 400
R1 vIN N002 3.32Meg
R3 N002 N004 953k
X§U1 0 vIN N002 N004 N005 N001 N003 MAX17555C
R2 N002 0 287k
R4 vOUT N003 100k
.tran 2.4m startup
.lib MAX17555C.sub
.backanno
.end
