* C:\Users\adity\AppData\Local\LTspice\examples\ApplicationsCopy\MAX15096D.asc
* Generated by LTspice 24.1.9 for Windows.
V1 IN 0 12
C2 OUT 0 680µ
R1 IN N004 113K
R2 0 N004 10K
R5 OUT N003 20K
C1 N008 0 5.6n
S1 0 OUT N001 0 SHORT
V3 N001 0 PULSE(0 1 240m 1m 1m 10m)
R6 N006 0 11K
C3 N002 0 1µ
C4 N007 0 1µ
R4 IN N002 10
R3 0 N005 41.2K
V2 EN 0 pulse(0 5 600u 1u 1u 8 9 1)
V4 PRSNT 0 pulse(5 0 10u 1u 1u 8 9 1)
X§U1 N002 N005 0 N007 N008 EN PRSNT OUT IN N004 N006 N003 MAX15096D
.model SHORT SW(Ron=10m Roff=1K Vt=.5 Vh=-.4)
.tran 4 startup
.lib MAX15096D.sub
.backanno
.end
