* C:\Users\adity\AppData\Local\LTspice\examples\ApplicationsCopy\MAX15162.asc
* Generated by LTspice 24.1.9 for Windows.
V1 IN 0 PWL(0 48)
C2 OUT1 0 22µ
S1 0 OUT1 N001 0 SHORT
V3 N001 0 PULSE(0 1 70m 1m 1m 100m)
R3 0 N010 28K
R7 N006 N005 20K
R1 0 N008 3.01K
R2 N009 0 3.01K
R4 N006 N007 20K
V2 N006 0 5
C1 OUT2 0 22µ
S2 0 OUT2 N003 0 SHORT
V4 N003 0 PULSE(0 1 70m 1m 1m 100m)
V5 N002 0 2
V6 N004 0 2
X§U1 IN N010 0 N002 N004 N005 N007 OUT1 OUT2 N009 N008 MAX15162
.model SHORT SW(Ron=31 Roff=100K Vt=.5 Vh=-.4)
.tran 0.25 startup
.lib MAX15162.sub
.backanno
.end
