* C:\Users\adity\AppData\Local\LTspice\examples\ApplicationsCopy\MAX17640A.asc
* Generated by LTspice 24.1.9 for Windows.
X§U1 0 vIN vIN N002 vOUT NC_01 NC_02 N001 MAX17640A
V1 vIN 0 12
C1 N002 0 1µ
L1 N001 vOUT 47µ Rser=0.27
C2 vOUT 0 22µ
Rload vOUT 0 8.25
.tran 5m startup
.lib MAX17640A.sub
.backanno
.end
