* C:\Users\adity\AppData\Local\LTspice\examples\ApplicationsCopy\MAX15090C.asc
* Generated by LTspice 24.1.9 for Windows.
V1 IN 0 12
C2 OUT 0 680µ
R1 IN N004 100K
R2 N004 N010 12.1K
R5 OUT N003 20K
C1 N009 0 5.6n
S1 0 OUT N001 0 SHORT
V3 N001 0 PULSE(0 1 240m 1m 1m 10m)
R6 N007 0 1K
C3 N002 0 1µ
C4 N008 0 1µ
R4 IN N002 10
R3 0 N006 40.2K
R7 IN N005 20K
R8 N010 0 10K
C5 N011 0 1n
X§U1 N002 N006 0 N008 N009 N004 0 OUT IN N010 N011 N003 N005 N007 MAX15090C
.model SHORT SW(Ron=10m Roff=1K Vt=.5 Vh=-.4)
.tran 0.4 startup
.lib MAX15090C.sub
.backanno
.end
