* C:\Users\adity\AppData\Local\LTspice\examples\ApplicationsCopy\MAX17612A.asc
* Generated by LTspice 24.1.9 for Windows.
V1 IN 0 48
C2 OUT 0 15µ
S1 0 OUT N001 0 SHORT
V3 N001 0 PULSE(0 1 70m 1m 1m 100m)
R6 N005 N004 20K
R4 0 N007 10K
R8 N008 0 1.2K
R7 N005 N006 20K
V2 N005 0 5
V4 N002 0 2
R1 IN N003 2.1Meg
R2 N003 0 100K
R3 N007 IN 499K
X§U1 IN N008 0 NC_01 N002 N004 N006 OUT N003 N007 MAX17612A
.model SHORT SW(Ron=24 Roff=100K Vt=.5 Vh=-.4)
.tran 1.25 startup
.lib MAX17612A.sub
.backanno
.end
