* C:\Users\adity\AppData\Local\LTspice\examples\ApplicationsCopy\MAX17526A.asc
* Generated by LTspice 24.1.9 for Windows.
V1 VSYS 0 48
C2 OUT 0 150µ
S1 0 OUT N001 0 SHORT
V3 N001 0 PULSE(0 1 70m 1m 1m 100m)
R6 N007 N006 20K
R4 0 N005 10K
R8 N009 0 6.26K
V2 N007 0 5
V4 N008 0 2
R1 IN N004 2.1Meg
R2 N004 0 100K
R3 N005 VSYS 499K
M1 IN N002 VSYS VSYS RSS065N06
R5 OUT N003 2.1Meg
R7 N003 0 100K
C1 IN 0 0.1µ
X§U1 IN N009 0 0 N008 N006 0 OUT N003 N005 N004 VSYS N002 MAX17526A
.model NMOS NMOS
.model PMOS PMOS
.lib C:\Users\adity\AppData\Local\LTspice\lib\cmp\standard.mos
.model SHORT SW(Ron=.1 Roff=100K Vt=.5 Vh=-.4)
.tran 1 startup
.lib MAX17526A.sub
.backanno
.end
