* C:\Users\adity\AppData\Local\LTspice\examples\ApplicationsCopy\MAX1522.asc
* Generated by LTspice 24.1.9 for Windows.
L1 IN N001 3.3µ Rser=86m
M1 N001 N002 0 0 FDC637AN
V1 IN 0 3.3
C1 IN 0 0.1µ
D1 N001 OUT MBRS130L
R1 OUT N003 274K
R2 N003 0 90.9K
C2 OUT N003 100p
C3 N003 0 100p
C4 OUT 0 33µ Rser=60m
R3 OUT 0 14.2 m=2
X§U2 0 N003 0 IN N002 IN MAX1522
.model D D
.lib C:\Users\adity\AppData\Local\LTspice\lib\cmp\standard.dio
.model NMOS NMOS
.model PMOS PMOS
.lib C:\Users\adity\AppData\Local\LTspice\lib\cmp\standard.mos
.tran 4m startup
.lib MAX1522.sub
.backanno
.end
