* C:\Users\adity\AppData\Local\LTspice\examples\ApplicationsCopy\MAX17597.asc
* Generated by LTspice 24.1.9 for Windows.
C2 OUT 0 10µ X6 Rser=1.1m
D1 N001 OUT MBR745
RCS N005 0 40m
Rload OUT 0 20
R9 N010 0 100K
M1 N001 N002 N005 N005 BSC093N04LS
R1 N005 N004 221
C4 N004 0 1n
R2 IN N003 210k
C1 N008 0 39n
R3 N003 N006 1.18k
R4 N006 0 17.8k
C5 N013 0 1µ
C6 N012 0 220n
C9 N011 0 3.3n
R5 N012 N011 2.1K
R6 N009 0 1
R7 OUT N007 562K
R8 N007 0 30.1K
L1 IN N001 51µ Rser=100m
V1 IN 0 15
X§U1 N009 N010 0 N011 N007 N008 0 N004 0 N002 N013 IN N003 N006 MAX17597
.model D D
.lib C:\Users\adity\AppData\Local\LTspice\lib\cmp\standard.dio
.model NMOS NMOS
.model PMOS PMOS
.lib C:\Users\adity\AppData\Local\LTspice\lib\cmp\standard.mos
.tran 5.5m startup
.lib MAX17597.sub
.backanno
.end
