* C:\Users\adity\AppData\Local\LTspice\examples\ApplicationsCopy\MAX17555B.asc
* Generated by LTspice 24.1.9 for Windows.
V1 vIN 0 12
L1 N001 vOUT 220µ Rser=3.7
C1 vOUT 0 10µ
Rload vOUT 0 100
R1 vIN N002 3.32Meg
R2 N002 0 475k
R3 vOUT N003 100k
X§U1 0 vIN N002 0 vOUT N001 N003 MAX17555B
.tran 1.6m startup
.lib MAX17555B.sub
.backanno
.end
