* C:\Users\adity\AppData\Local\LTspice\examples\ApplicationsCopy\MAX17606.asc
* Generated by LTspice 24.1.9 for Windows.
X§U1 0 N001 DRN GATE N003 N002 MAX17606
V1 N001 0 12
C8 N003 0 2.2µ
R11 N002 0 40.2k
V2 DRN 0 pulse(-150m 40m 0.3m 2n 2n 1.67u 3.33u)
.tran 0.4m
.lib MAX17606.sub
.backanno
.end
