* C:\Users\adity\AppData\Local\LTspice\examples\ApplicationsCopy\MAX22205.asc
* Generated by LTspice 24.1.9 for Windows.
X§U1 VM 0 N003 N005 N007 N009 NC_01 N013 N015 N016 N017 N018 N019 N001 N002 N004 N006 N008 N010 N011 N014 N014 OUTA OUTA OUTB OUTB MAX22205 TA=25 Rth=38
V1 VM 0 12
R1 N003 0 120k
C1 N005 VM 1µ
C2 N009 N007 100n
V2 N013 0 5
R4 N016 0 12k
V3 N017 0 5
V4 N018 0 0
V5 N019 0 5
V6 N001 0 0
V7 N002 0 0
V8 N004 0 0
V9 N006 0 0
V10 N008 0 5
V11 N010 0 5
R5 N012 N011 120k
V12 N012 0 5
R7 0 N014 1.5k
L1 OUTA OUTB 1m
C3 N015 0 2.2µ
.tran 5m startup
.lib MAX22205.sub
.backanno
.end
