* C:\Users\adity\AppData\Local\LTspice\examples\ApplicationsCopy\MAX20336.asc
* Generated by LTspice 24.1.9 for Windows.
V1 vNO 0 SINE(0 5.5 20)
R1 vCOM 0 49.9
V2 vVccEN 0 PULSE(0 2.5 20n 20n 20n 150m 300m)
X§U1 vVccEN vCOM vNO 0 MAX20336
.tran 1
* Note:\nSwitch shown for a logic 0 input
.lib MAX20336.sub
.backanno
.end
