* C:\Users\adity\AppData\Local\LTspice\examples\ApplicationsCopy\MAX20444B.asc
* Generated by LTspice 24.1.9 for Windows.
V1 IN 0 6
L1 N001 N002 4.7µ Rser=19.5m
M1 N001 N003 IN IN SQ4401EY
R1 N011 N010 3.74K
R2 N011 0 40m
M2 N002 N005 N011 N011 AON6266E
R3 N005 N004 10
D1 N002 OUT MBRS360
C2 OUT 0 4.7µ m=3
C3 OUT 0 1µ
R4 OUT N018 226K
R5 N018 0 15K
R6 N031 0 76.8K
R7 N039 N042 8.06K
C4 N042 0 68n
C5 N039 0 2.2n
C6 0 N031 100p
C7 N016 0 1µ
R8 N037 0 84.5K
R9 N041 0 45.3K
D2 OUT N006 LXHL-BW02
D3 N006 N012 LXHL-BW02
D4 N012 N019 LXHL-BW02
D5 N019 N023 LXHL-BW02
D6 N023 N027 LXHL-BW02
D7 N027 N034 LXHL-BW02
D8 OUT N007 LXHL-BW02
D9 N007 N013 LXHL-BW02
D10 N013 N020 LXHL-BW02
D11 N020 N024 LXHL-BW02
D12 N024 N028 LXHL-BW02
D13 N028 N036 LXHL-BW02
D14 OUT N008 LXHL-BW02
D15 N008 N014 LXHL-BW02
D16 N014 N021 LXHL-BW02
D17 N021 N025 LXHL-BW02
D18 N025 N029 LXHL-BW02
D19 N029 N038 LXHL-BW02
D20 OUT N009 LXHL-BW02
D21 N009 N015 LXHL-BW02
D22 N015 N022 LXHL-BW02
D23 N022 N026 LXHL-BW02
D24 N026 N030 LXHL-BW02
D25 N030 N040 LXHL-BW02
C1 OUT 0 47µ
R10 N033 0 59K
V2 N035 0 PULSE(0 3.3 0 10n 10n 0.3m 0.5m)
R11 N017 N016 100K
R12 N016 N032 100K
R13 N032 0 20K
X§U2 IN N003 N034 N038 N033 N017 N016 0 0 N031 0 N041 N035 N032 N040 N036 N037 N039 N010 N018 0 N004 N016 IN MAX20444B DIM_EXT=1 HDIM=1 SIM_SPEED_MULT=2 ENABLED_CH=4
.model D D
.lib C:\Users\adity\AppData\Local\LTspice\lib\cmp\standard.dio
.model NMOS NMOS
.model PMOS PMOS
.lib C:\Users\adity\AppData\Local\LTspice\lib\cmp\standard.mos
.tran 45m startup
* Variable definition\n \nDIM_EXT = 1 if external dimming, 0 if I2C.\n        Note:Internal Dimming is not modeled.\nHDIM = 1 if Hybrid dimming is enabled, 0 if disabled\nSIM_SPEED_MULT multiplier to speed up the start-up routine.\n        Reccomended value ranges from 1 to 10 though can be increased indefinitely,\n        However model performance is not guaranteed.\nENABLED_CH= write1 to 4\n        1 to enable channel 1\n        2 to enable both channels 1 and 2\n        3 to enable channels 1, 2 and 3\n        4 to enable all channels\n        Note: When disabling unused strings, it is necessary to start by disabling the \n        highest numbered current sinks first.
.lib MAX20444B.sub
.backanno
.end
