* C:\Users\adity\AppData\Local\LTspice\examples\ApplicationsCopy\MAX25206.asc
* Generated by LTspice 24.1.9 for Windows.
V1 IN 0 12
R1 N002 0 12K
L1 N004 N005 1.2µ
C5 OUT 0 47µ X2
C6 N006 0 1µ
Rload OUT 0 {5/7}
R4 N008 N006 10K
M1 IN N001 N004 N004 BSC034N03LS
C1 N003 N004 0.1µ
M2 N004 N007 0 0 BSC034N03LS
R5 OUT N005 10m
R6 N009 N010 100K
C2 N010 0 1500p
X§U1 N006 N007 N006 N002 N001 N006 N008 NC_01 IN IN 0 0 N003 N004 OUT N005 N009 N006 MAX25206
.model NMOS NMOS
.model PMOS PMOS
.lib C:\Users\adity\AppData\Local\LTspice\lib\cmp\standard.mos
.tran 5m startup
.lib MAX25206.sub
.backanno
.end
