* C:\Users\adity\AppData\Local\LTspice\examples\ApplicationsCopy\MAX22088.asc
* Generated by LTspice 24.1.9 for Windows.
D1 H2+ N002 BAS116HY
D2 H2- N002 BAS116HY
D3 N003 H2+ BAS116HY
D4 N003 H2- BAS116HY
R1 N011 N006 1k
R2 N011 N016 82
C1 H2+ N007 2.2µ
C2 H2- N019 2.2µ
C3 N010 N009 100n
C5 N020 N014 1µ
C4 N020 N015 100n
R3 N027 N023 27k
C6 RAW COM 100µ
R4 N027 N030 4.3k
R5 N030 COM 20k
R6 N014 N015 180k
R7 COM N021 120k
V1 N025 COM 5
R8 N026 N025 20k
C7 N023 COM 10µ
V2 IN 0 18
R9 H1+ H2+ 2
R10 H1- H2- 2
R11 N013 N008 1k
R12 N013 N018 82
R13 N029 N024 27k
R14 N029 N031 4.3k
R15 N031 0 20k
R17 0 N022 120k
V3 VSYS 0 5
R18 N028 VSYS 20k
C12 N024 0 10µ
C13 H1+ N004 2.2µ
C14 H1- N005 2.2µ
R16 COM RAW 100
R19 N007 N006 4.7
R20 N019 N011 4.7
R21 N002 N001 1
R22 N008 N004 4.7
R23 N013 N005 4.7
V5 N032 COM pulse(5 0 60081u 10n 10n 60u 160u 62)
V6 N034 COM pwl(0 0 +10u 3 60080u 3 +10n 0 70701u 0 +10n 3)
V8 N033 0 pulse(5 0 71081u 10n 10n 60u 160u 62)
V9 N035 0 pwl(0 0 +10u 3 71080u 3 +10n 0 81702u 0 +10n 3)
C8 COM 0 1n
L1 H1+ IN 100m Rser=5.5
L2 0 H1- 100m Rser=5.5
X§U1 N026 N032 N034 COM RAW N021 N023 COM RAW N001 N003 N020 N015 N010 N009 N006 N011 N016 N027 N030 MAX22088
X§U2 N028 N033 N035 0 VSYS N022 N024 0 VSYS VSYS 0 N017 N017 N012 N012 N008 N013 N018 N029 N031 MAX22088
.model D D
.lib C:\Users\adity\AppData\Local\LTspice\lib\cmp\standard.dio
.tran 85m startup
k1 L1 L2 0.999999
.lib MAX22088.sub
.backanno
.end
