* C:\Users\adity\AppData\Local\LTspice\examples\ApplicationsCopy\MAX22256.asc
* Generated by LTspice 24.1.9 for Windows.
X§U1 vdd clki 0 N001 _fault 0 st2 st1 MAX22256
R1 N001 0 1.21k
V1 vdd 0 PULSE(0 24 0 10u 10u 100m 200m 2)
V2 clki 0 PULSE(0 3.3 0 10n 10n 2.5u 5u 10k)
R2 0 st1 22.1k
R3 0 st2 22.1k
R4 N002 _fault 1k
V3 N002 0 3.3
.tran 100m
.lib MAX22256.sub
.backanno
.end
