* C:\Users\adity\AppData\Local\LTspice\examples\ApplicationsCopy\MAX22700D.asc
* Generated by LTspice 24.1.9 for Windows.
X§U1 VDDA IN+ IN- 0 VDDB OUT 0 0 MAX22700D
V1 VDDA 0 5
V2 IN+ 0 PULSE(0 5 0 2n 2n 6u 12u)
V3 IN- 0 PULSE(0 5 0 2n 2n 3u 5u)
C1 OUT 0 200p
V4 VDDB 0 20
.tran 50u
.lib MAX22700D.sub
.backanno
.end
