* C:\Users\adity\AppData\Local\LTspice\examples\ApplicationsCopy\MAX22701D.asc
* Generated by LTspice 24.1.9 for Windows.
X§U1 VDD1 IN+ IN- 0 VDD2 OUT CLAMP 0 MAX22701D
V1 VDD1 0 5
V2 IN+ 0 PULSE(0 5 0 2n 2n 6u 12u)
V3 IN- 0 PULSE(0 5 0 2n 2n 3u 5u)
R1 CLAMP OUT 10
V5 VDD2 0 20
.tran 50u
.lib MAX22701D.sub
.backanno
.end
