* C:\Users\adity\AppData\Local\LTspice\examples\ApplicationsCopy\MAX20048.asc
* Generated by LTspice 24.1.9 for Windows.
L1 N005 N006 2.2µ Rser=4.5m
M1 N001 N003 N005 N005 BSC034N03LS
M2 N005 N007 0 0 BSC034N03LS
M3 N006 N008 0 0 BSC034N03LS
M4 N002 N004 N006 N006 BSC034N03LS
C1 N005 N009 0.1µ
C2 N006 N010 0.1µ
D1 Vcc N009 RB160MM-90
D2 Vcc N010 RB160MM-90
R1 VIN N001 3m
R2 N002 VOUT 2m
V1 VIN 0 14
C3 Vcc 0 4.7µ
R3 N011 0 47.5k
C4 VOUT 0 100µ m=3
R4 N013 0 73.2k
R5 N012 N014 10k
C5 N014 0 10n
C6 N012 0 100p
Rload VOUT 0 1
X§U1 N007 0 N001 VIN VIN VIN N011 Vcc N013 N012 NC_01 0 VOUT VOUT N002 0 Vcc N008 N010 N004 N006 N005 N003 N009 MAX20048 SYNCOUT=0 SPREAD_SPECTRUM=0 SoftStart=2m AutoRetry=0.5m
.model D D
.lib C:\Users\adity\AppData\Local\LTspice\lib\cmp\standard.dio
.model NMOS NMOS
.model PMOS PMOS
.lib C:\Users\adity\AppData\Local\LTspice\lib\cmp\standard.mos
.tran 3m startup
* Note: SYNCOUT and SPREAD_SPECTRUM parameters model the OTP options.\nSoft-start time and auto-retry time are parameterized to reduce simulation time, \nbut they are fixed at 6.5 ms and 26 ms on the real part.
.lib MAX20048.sub
.backanno
.end
