* C:\Users\adity\AppData\Local\LTspice\examples\ApplicationsCopy\MAX22288.asc
* Generated by LTspice 24.1.9 for Windows.
R1 N006 N003 1k
R2 N006 N009 82
C1 H2+ N004 2.2µ
C2 H2- N012 2.2µ
R3 N015 VSYS_1 27k
R4 N015 N017 4.3k
R5 N017 COM 20k
R7 COM N013 120k
R9 H1+ H2+ 2
R10 H1- H2- 2
R11 N007 N005 1k
R12 N007 N011 82
R13 VSYS N016 27k
R14 N016 N018 4.3k
R15 N018 0 20k
R17 0 N014 120k
V3 VSYS 0 5
R18 N010 VSYS 20k
C13 H1+ N001 2.2µ
C14 H1- N002 2.2µ
R19 N004 N003 4.7
R20 N012 N006 4.7
R22 N005 N001 4.7
R23 N007 N002 4.7
V5 N019 COM pulse(5 0 60081u 10n 10n 60u 160u 62)
V6 N021 COM pwl(0 0 +10u 3 60080u 3 +10n 0 70701u 0 +10n 3)
V8 N020 0 pulse(5 0 71081u 10n 10n 60u 160u 62)
V9 N022 0 pwl(0 0 +10u 3 71080u 3 +10n 0 81702u 0 +10n 3)
X§U2 N010 N020 N022 0 0 N014 VSYS 0 N011 N005 N007 N016 N018 MAX22288
C8 COM 0 1n
X§U1 N008 N019 N021 COM COM N013 VSYS_1 COM N009 N003 N006 N015 N017 MAX22288
V1 VSYS_1 COM 5
R6 N008 VSYS_1 20k
.tran 85m startup
.lib MAX22288.sub
.backanno
.end
