* C:\Users\adity\AppData\Local\LTspice\examples\ApplicationsCopy\MAX20313.asc
* Generated by LTspice 24.1.9 for Windows.
V1 IN 0 5
C2 OUT 0 150µ
S1 0 OUT N001 0 SHORT
V3 N001 0 PULSE(0 1 10m 1m 1m 30m)
R6 N004 N003 20K
R8 N005 0 681
V2 N004 0 5
V4 N002 0 2
X§U1 IN N005 0 N003 N002 OUT MAX20313
.model SHORT SW(Ron=0.05 Roff=1K Vt=.5 Vh=-.4)
.tran 50m startup
.lib MAX20313.sub
.backanno
.end
