* C:\Users\adity\AppData\Local\LTspice\examples\ApplicationsCopy\MAX25510.asc
* Generated by LTspice 24.1.9 for Windows.
V1 IN 0 6
L1 N001 N002 10µ Rser=19.5m
D1 N002 OUT PMEG3010BEA
C2 OUT 0 4.7µ m=2
C3 OUT 0 1µ
R4 OUT N013 301K
R5 N013 0 10K
R6 N023 0 64.9K
R7 N034 N037 8.06K
C4 N037 0 68n
C5 N034 0 2.2n
C6 0 N023 100p
C7 N018 0 1µ
R9 N036 0 12.4K
D2 OUT N004 AOT-2015
C1 OUT 0 47µ
V2 N030 0 PULSE(0 3.3 0 10n 10n 0.3m 0.5m)
R11 N018 N012 100K
R12 N018 N028 100K
R13 N028 0 47.5K
M1 IN N003 N001 N001 AON6590A
C8 N001 0 10µ
V3 N032 0 PULSE(0 3.3 0 10n 10n 0.5m 1m)
D3 N004 N008 AOT-2015
D4 N008 N014 AOT-2015
D5 OUT N005 AOT-2015
D6 N005 N009 AOT-2015
D7 N009 N015 AOT-2015
D8 OUT N006 AOT-2015
D9 N006 N010 AOT-2015
D10 N010 N016 AOT-2015
D11 OUT N007 AOT-2015
D12 N007 N011 AOT-2015
D13 N011 N017 AOT-2015
D14 N014 N019 AOT-2015
D15 N019 N024 AOT-2015
D16 N024 N029 AOT-2015
D17 N015 N020 AOT-2015
D18 N020 N025 AOT-2015
D19 N025 N031 AOT-2015
D20 N016 N021 AOT-2015
D21 N021 N026 AOT-2015
D22 N026 N033 AOT-2015
D23 N017 N022 AOT-2015
D24 N022 N027 AOT-2015
D25 N027 N035 AOT-2015
X§U1 IN N003 N029 N033 N018 N012 N032 IN 0 N023 0 N018 N030 N028 N035 N031 N036 N034 N002 N013 0 MAX25510 SIM_SPEED_MULT=10 ENABLED_CH=4
.model D D
.lib C:\Users\adity\AppData\Local\LTspice\lib\cmp\standard.dio
.model NMOS NMOS
.model PMOS PMOS
.lib C:\Users\adity\AppData\Local\LTspice\lib\cmp\standard.mos
.tran 50m startup
* Variable definition\n \nSIM_SPEED_MULT multiplier to speed up the start-up routine.\n        Reccomended value ranges from 1 to 10 though can be increased indefinitely,\n        However model performance is not guaranteed.\nENABLED_CH= write1 to 4\n        1 to enable channel 1\n        2 to enable both channels 1 and 2\n        3 to enable channels 1, 2 and 3\n        4 to enable all channels\n        Note: When disabling unused strings, it is necessary to start by disabling the \n        highest numbered current sinks first.
.lib MAX25510.sub
.backanno
.end
