* C:\Users\adity\AppData\Local\LTspice\examples\ApplicationsCopy\MAX34406T.asc
* Generated by LTspice 24.1.9 for Windows.
Ccdly CDLY 0 10n
Rpu1 VDD OC 10k
Rpu2 VDD SHTDN 10k
VDD VDD 0 5
Vcm IN+ 0 12
Rsense IN+ IN- 5m
Iload IN- 0 PWL(0 2 1m 2 +1n 10 8m 10 +1n 2)
VENA ENA 0 PWL(0 5 9m 5 +1n 0 +250u 0 +1n 5)
R1 OUT 0 1Meg
C1 OUT 0 100p
X§U1 IN+ IN- VDD 0 OUT OC ENA SHTDN CDLY MAX34406T
.tran 10m
.lib MAX34406T.lib
.backanno
.end
