* C:\Users\adity\AppData\Local\LTspice\examples\ApplicationsCopy\MAX38902B.asc
* Generated by LTspice 24.1.9 for Windows.
V1 IN 0 3
X§U2 IN OUT IN N002 NC_01 N001 0 MAX38902B
C2 OUT N001 10n
C3 OUT 0 4.7µ
R1 OUT 0 5
R2 OUT N002 950K
R3 N002 0 300K
.tran 0.8 startup
.lib MAX38902B.sub
.backanno
.end
