* C:\Users\adity\AppData\Local\LTspice\examples\ApplicationsCopy\MAX4166.asc
* Generated by LTspice 24.1.9 for Windows.
Vee 0 Vee 2.5
Vcc Vcc 0 2.5
RL OUT 0 100k
V1 IN 0 SINE(0 50m 100k)
CL OUT 0 15p
X§U1 IN OUT Vcc Vee OUT Vcc MAX4166
.tran 10u
.lib MAX4166.lib
.backanno
.end
