* C:\Users\adity\AppData\Local\LTspice\examples\ApplicationsCopy\MAX410.asc
* Generated by LTspice 24.1.9 for Windows.
Vee 0 Vee 5
Vcc Vcc 0 5
RL OUT 0 2k
V1 IN 0 SINE(0 50m 100k)
CL OUT 0 15p
X§U1 IN OUT Vcc Vee OUT MAX410
.tran 10u
.lib MAX410.lib
.backanno
.end
