* C:\Users\adity\AppData\Local\LTspice\examples\ApplicationsCopy\MAX49925.asc
* Generated by LTspice 24.1.9 for Windows.
V1 VDD 0 3.3
Vsense RS+ RS- SINE(0 10m 1k) AC 1
Vcm RS- 0 48
VG2 G2 0 0
VG1 G1 0 0
R1 OUT 0 10k
C1 OUT 0 10p
X§U1 RS+ RS- OUT 0 VDD 0 VDD G2 G1 MAX49925
.tran 2m
.lib MAX49925.sub
.backanno
.end
