* C:\Users\adity\AppData\Local\LTspice\examples\ApplicationsCopy\MAX4730.asc
* Generated by LTspice 24.1.9 for Windows.
V1 vNO 0 3
V3 vIN 0 PULSE(0 3.3 0 20n 20n 10u 20u)
R1 vCOM 0 301
C1 vCOM 0 36p
V4 +V 0 3.3
X§U1 vIN vNO vCOM 0 +V 0 MAX4730
.tran 100u
* Notes:\nSwitch shown for a logic 0 input\nOn resistance performance at 5V supply\nCharge injection is not included\nBandwidth is 266 MHz
.lib MAX4730.sub
.backanno
.end
