* C:\Users\adity\AppData\Local\LTspice\examples\ApplicationsCopy\MAX42402B.asc
* Generated by LTspice 24.1.9 for Windows.
V1 vIN 0 12
C1 N003 0 2.2µ
L1 N002 vOUT 2.2µ Rser=13.5m
C3 vOUT 0 47µ Rser=2m
Rload vOUT 0 1.32
C2 N001 N002 0.1µ
R1 PGOOD N003 20k
R2 vOUT N004 49.9k
R3 N004 0 15.8k
C4 vOUT N004 47p
X§U1 0 0 vIN vIN N002 N001 N003 N003 N004 PGOOD N003 MAX42402B
.tran 4m startup
.lib MAX42402B.sub
.backanno
.end
