* C:\Users\adity\AppData\Local\LTspice\examples\ApplicationsCopy\MAX44281O.asc
* Generated by LTspice 24.1.9 for Windows.
Vcc Vcc 0 3.3
RL OUT 0 10k
V1 IN 0 SINE(1.65 50m 100k)
C1 OUT 0 1p
X§U1 IN Vcc 0 OUT MAX44281O
.tran 10u
.lib MAX44281O.lib
.backanno
.end
