* C:\Users\adity\AppData\Local\LTspice\examples\ApplicationsCopy\MAX4052A.asc
* Generated by LTspice 24.1.9 for Windows.
V1 vNO0A 0 1
V2 vNO1A 0 2
V3 vNO2A 0 3
V4 vNO3A 0 4
V5 vNO0B 0 -1
V6 vNO1B 0 -2
V7 vNO2B 0 -3
V8 vNO3B 0 -4
V18 N001 0 5
V17 N002 0 -5
V19 vINH 0 PULSE(0 3 0 10n 10n 10u 20u)
R1 vCOMA 0 301
C1 N001 0 0.1µ
C2 N002 0 0.1µ
C3 vCOMA 0 36p
V20 vADDA 0 0
V21 vADDB 0 0
R2 vCOMB 0 301
C4 vCOMB 0 36p
X§U1 N001 vADDA vADDB vCOMB N002 vINH vNO0A vNO1A vNO2A vNO3A vNO0B vNO1B vNO2B vNO3B vCOMA 0 MAX4052A
.tran 100u
* Notes:\nSwitch shown for a logic 0 input\nRon modeled at ±5V\nOff isolation -98dB at 100KHz\nCrosstalk -110dB at 100KHz
.lib MAX4052A.sub
.backanno
.end
