* C:\Users\adity\AppData\Local\LTspice\examples\ApplicationsCopy\MAX44241.asc
* Generated by LTspice 24.1.9 for Windows.
Vee 0 Vee 15
Vcc Vcc 0 15
RL OUT 0 5k
V1 IN 0 SINE(0 50m 100k)
CL OUT 0 15p
X§U1 IN OUT Vcc Vee OUT MAX44241
.tran 10u
.lib MAX44241.lib
.backanno
.end
