* C:\Users\adity\AppData\Local\LTspice\examples\ApplicationsCopy\MAX49918.asc
* Generated by LTspice 24.1.9 for Windows.
V1 VDD 0 5
Vsense RS+ RS- SINE(0 10m 1k) AC 1
Vcm RS- 0 50
VG2 G2 0 0
VG1 G1 0 0
VG0 G0 0 0
R1 OUT 0 10k
C1 OUT 0 10p
X§U2 RS+ RS- 0 OUT VDD 0 VDD G0 G1 G2 MAX49918
.op
.tran 2m
.lib MAX49918.lib
.backanno
.end
