* C:\Users\adity\AppData\Local\LTspice\examples\ApplicationsCopy\MAX44264.asc
* Generated by LTspice 24.1.9 for Windows.
V1 VCC 0 5
RL OUT N001 1Meg
VIN IN N001 SINE(0 50m 100)
V2 N001 0 2.5
X§U1 IN OUT VCC 0 OUT MAX44264
.tran 10m
.lib MAX44264.lib
.backanno
.end
