* C:\Users\adity\AppData\Local\LTspice\examples\ApplicationsCopy\MAX4273.asc
* Generated by LTspice 24.1.9 for Windows.
C4 N011 0 100n
M§Q1 N001 N003 OUT OUT FDS6670A
C6 OUT 0 470µ
V1 IN 0 5
V2 ON 0 pulse(0 2 160m 1u 1u 1.9 2 1)
C1 N006 0 1µ
R3 N001 IN 100m
S1 0 OUT N002 0 SHORT
V4 N002 0 PULSE(0 1 240m 1m 1m 10m)
R2 N008 N007 20K
V3 N008 0 5
C5 N004 N005 22n
R1 N003 N004 100
C2 N009 0 100n
C3 N010 0 100n
X§U1 IN N001 N004 0 N011 N010 N007 ON N009 N005 0 N006 OUT NC_01 NC_02 NC_03 MAX4273
.model NMOS NMOS
.model PMOS PMOS
.lib C:\Users\adity\AppData\Local\LTspice\lib\cmp\standard.mos
.tran 1.6 startup
.model SHORT SW(Ron=10m Roff=5K Vt=.5 Vh=-.4)
.lib MAX4273.sub
.backanno
.end
