* C:\Users\adity\AppData\Local\LTspice\examples\ApplicationsCopy\MAX41400.asc
* Generated by LTspice 24.1.9 for Windows.
Vdd Vdd 0 1.8
Vsin IN 0 PULSE(-10m 10m 500u 1n 1n 1m 2m) AC 1
RL OUT 0 10k
Vref Ref 0 0.9
E1 INP Ref IN 0 0.5
E2 Ref INM IN 0 0.5
CL OUT 0 15p
X§U1 0 0 0 0 INM INP OUT Ref Vdd Vdd MAX41400
.tran 2m
.lib MAX41400.sub
.backanno
.end
