* C:\Users\adity\AppData\Local\LTspice\examples\ApplicationsCopy\MAX44280.asc
* Generated by LTspice 24.1.9 for Windows.
X§U1 IN N002 V+ 0 OUT V+ MAX44280
V1 IN N001 SINE(0 10m 1Meg)
V2 V+ 0 3.3
R1 OUT 0 10k
V4 N001 0 1.65
R2 OUT N002 1k
R3 N002 N001 250
.tran 2u
.lib MAX44280.sub
.backanno
.end
