* C:\Users\adity\AppData\Local\LTspice\examples\ApplicationsCopy\MAX4051A.asc
* Generated by LTspice 24.1.9 for Windows.
V1 vNO0 0 1
V2 vNO1 0 2
V3 vNO2 0 3
V4 vNO3 0 4
V5 vNO4 0 -1
V6 vNO5 0 -2
V7 vNO6 0 -3
V8 vNO7 0 -4
V18 N001 0 5
V17 N002 0 -5
V19 vINH 0 PULSE(0 3 0 10n 10n 10u 20u)
R1 vCOM 0 301
C1 N001 0 0.1µ
C2 N002 0 0.1µ
C3 vCOM 0 36p
V20 vADDA 0 0
V21 vADDB 0 0
V22 vADDC 0 0
X§U1 N001 vADDA vADDB vADDC N002 vINH vNO0 vNO1 vNO2 vNO3 vNO4 vNO5 vNO6 vNO7 vCOM 0 MAX4051A
.tran 100u
* Notes:\nSwitch shown for a logic 0 input\nRon modeled at ±5V\nOff isolation -104dB at 100KHz\nCrosstalk -114dB at 100KHz
.lib MAX4051A.sub
.backanno
.end
