* C:\Users\adity\AppData\Local\LTspice\examples\ApplicationsCopy\MAX44281U.asc
* Generated by LTspice 24.1.9 for Windows.
Vcc Vcc 0 3.3
RL OUT 0 10k
V1 IN 0 SINE(165m 50m 10k)
CL OUT 0 1p
X§U1 IN Vcc 0 OUT MAX44281U
.tran 100u
.lib MAX44281U.lib
.backanno
.end
