* C:\Users\adity\AppData\Local\LTspice\examples\ApplicationsCopy\MAX40023.asc
* Generated by LTspice 24.1.9 for Windows.
Vee 0 Vee 1.5
Vcc Vcc 0 1.5
RL OUT 0 10k
V1 IN 0 SINE(0 50m 1k)
CL OUT 0 15p
X§U1 IN OUT Vcc Vee OUT Vcc MAX40023
.tran 1m
.lib MAX40023.sub
.backanno
.end
