* C:\Users\adity\AppData\Local\LTspice\examples\ApplicationsCopy\MAX4233.asc
* Generated by LTspice 24.1.9 for Windows.
Vee 0 Vee 2.5
Vcc Vcc 0 2.5
RL OUT 0 100k
V1 IN 0 SINE(0 50m 10k)
CL OUT 0 15p
X§U1 IN OUT Vcc Vee OUT Vcc MAX4233
.tran 100u
.lib MAX4233.lib
.backanno
.end
