* C:\Users\adity\AppData\Local\LTspice\examples\ApplicationsCopy\MAX4163.asc
* Generated by LTspice 24.1.9 for Windows.
Vee 0 Vee 2.5
Vcc Vcc 0 2.5
RL OUT 0 10k
V1 IN 0 SINE(0 50m 1k)
CL OUT 0 15p
X§U1 IN OUT Vcc Vee OUT MAX4163
.tran 1m
.lib MAX4163.lib
.backanno
.end
