* C:\Users\adity\AppData\Local\LTspice\examples\ApplicationsCopy\MAX40018.asc
* Generated by LTspice 24.1.9 for Windows.
V1 VCC 0 3
RL OUT N001 100k
VIN IN N001 SINE(0 50m 100)
CL OUT N001 15p
X§U1 IN OUT VCC 0 OUT MAX40018
V2 N001 0 1.5
.tran 10m
.lib MAX40018.lib
.backanno
.end
