* C:\Users\adity\AppData\Local\LTspice\examples\ApplicationsCopy\MAX42403A.asc
* Generated by LTspice 24.1.9 for Windows.
V1 vIN 0 12
C1 N003 0 2.2µ
L1 N002 vOUT 6.8µ Rser=17.6m
C3 vOUT 0 47µ Rser=2m
Rload vOUT 0 0.95
C2 N001 N002 0.1µ
R1 PGOOD N003 20k
R2 vOUT N004 49.9k
R3 N004 0 15.8k
C4 vOUT N004 33p
X§U1 0 0 vIN vIN N002 N001 N003 N003 N004 PGOOD N003 MAX42403A
.tran 3m startup
.lib MAX42403A.sub
.backanno
.end
