* C:\Users\adity\AppData\Local\LTspice\examples\ApplicationsCopy\MAX5976A.asc
* Generated by LTspice 24.1.9 for Windows.
V1 IN 0 12
C2 OUT 0 680µ
R1 IN N002 147K
R2 0 N002 20K
S1 0 OUT N001 0 SHORT
V3 N001 0 PULSE(0 1 240m 1m 1m 10m)
C4 N008 0 1µ
R4 0 N005 20K
V2 _ON2 0 pulse(5 0 600u 1u 1u 8 9 1)
V4 _PRESDET 0 pulse(5 0 10u 1u 1u 8 9 1)
R5 N004 N003 20K
R6 N004 N007 20K
V5 N004 0 5
X§U1 N003 N006 0 N008 N007 _ON2 _PRESDET OUT IN N002 MAX5976A
R3 N005 N006 20K
.model SHORT SW(Ron=10m Roff=1K Vt=.5 Vh=-.4)
.tran 600m startup
.lib MAX5976A.sub
.backanno
.end
