* C:\Users\adity\AppData\Local\LTspice\examples\ApplicationsCopy\MAX5938A.asc
* Generated by LTspice 24.1.9 for Windows.
R5 N010 N009 10
C2 OUT- N009 4.7n
M1 OUT- N010 0 0 IRF1310
R3 N001 N004 316
R4 OUT+ N001 97.6k
C1 OUT+ N007 0.01µ
R7 N006 0 1.58k
C3 OUT+ OUT- 100µ Rser=25m
V3 N003 OUT- PWL(0 0 360m 0 360.001m 1)
S2 OUT- OUT+ N003 OUT- SoftShort
Sload OUT- OUT+ N002 OUT- Load
V1 0 OUT+ PWL(0 0 10m -48 280m -48 280.1m -70)
R2 N004 N006 1.4k
R6 N007 0 120k
R8 OUT- N005 1.47k
X§U1 OUT+ N001 0 N004 N006 N007 0 OUT- N005 N002 N009 N008 MAX5938A
R1 N008 0 2k
R9 OUT+ N002 20k
.model NMOS NMOS
.model PMOS PMOS
.lib C:\Users\adity\AppData\Local\LTspice\lib\cmp\standard.mos
.tran 400m startup
.model SoftShort SW(Ron=3 Roff=10G Vt=0.5 Vh=-0.1)
.model Load SW(Ron=40 Roff=10G Vt=0.5 Vh=-0.1)
.lib MAX5938A.sub
.backanno
.end
