* C:\Users\adity\AppData\Local\LTspice\examples\ApplicationsCopy\MAX5924A.asc
* Generated by LTspice 24.1.9 for Windows.
R1 IN N005 10
C3 N008 0 330n
M§Q1 N001 N004 OUT OUT BSO040N03MS
C2 OUT 0 150µ
V1 IN 0 5
V2 EN 0 pulse(0 2 600u 1u 1u 8 9 1)
C1 N005 0 1µ
R2 IN N003 750
S1 0 OUT N002 0 SHORT
V3 N002 0 PULSE(0 1 240m 1m 1m 10m)
R4 N007 N006 20K
V4 N007 0 5
R5 N001 IN 5m
X§U1 N005 N005 0 N006 EN N008 N004 OUT N001 N003 MAX5924A
.model NMOS NMOS
.model PMOS PMOS
.lib C:\Users\adity\AppData\Local\LTspice\lib\cmp\standard.mos
.tran 600m startup
.model SHORT SW(Ron=10m Roff=5K Vt=.5 Vh=-.4)
.lib MAX5924A.sub
.backanno
.end
