* C:\Users\adity\AppData\Local\LTspice\examples\ApplicationsCopy\MAX6037_ADJ.asc
* Generated by LTspice 24.1.9 for Windows.
R1 OUT N001 1m
C1 OUT 0 1µ
V1 IN 0 3
Iload OUT 0 PULSE(5m -5m 2m 1n 1n 5m 10m)
X§U1 N001 0 IN IN OUT MAX6037_ADJ
.tran 10m
.lib MAX6037_ADJ.sub
.backanno
.end
