* C:\Users\adity\AppData\Local\LTspice\examples\ApplicationsCopy\MAX74811.asc
* Generated by LTspice 24.1.9 for Windows.
V1 +V 0 2.5
Vin IN 0 SINE(0 50m 10k)
V2 -V 0 -2.5
Rload OUT 0 10k
X§U1 IN OUT +V -V OUT MAX74811
.tran 1m
.lib MAX74811.sub
.backanno
.end
