* C:\Users\adity\AppData\Local\LTspice\examples\ApplicationsCopy\MAX74821.asc
* Generated by LTspice 24.1.9 for Windows.
Vin IN 0 SINE(0 1 100K)
V1 +V 0 2.5
R1 N001 0 10K
R2 OUT N001 10K
V2 -V 0 -2.5
Rload OUT 0 10K
X§U1 IN N001 +V -V OUT MAX74821
.tran 100u
.lib MAX74821.sub
.backanno
.end
