* C:\Users\adity\AppData\Local\LTspice\examples\ApplicationsCopy\MAX9095.asc
* Generated by LTspice 24.1.9 for Windows.
V3 Vdd 0 5
V4 Vss 0 0
R1 Vdd OUT 5.1k
V2 REF 0 2.5
V1 IN 0 PULSE(2.4 2.6 2.5u 1n 1n 5u 10u)
X§U1 IN REF Vdd Vss OUT MAX9095
.tran 10u
.lib MAX9095.sub
.backanno
.end
