* C:\Users\adity\AppData\Local\LTspice\examples\ApplicationsCopy\MAXM15067.asc
* Generated by LTspice 24.1.9 for Windows.
X§U1 0 vIN N002 N003 N001 NC_01 NC_02 NC_03 vOUT MAXM15067
V1 vIN 0 24
C1 N003 0 1µ
C2 vOUT 0 10µ
R1 vIN N002 2.21Meg
R2 N002 0 825k
Rload vOUT 0 8.33
R3 vOUT N001 133k
R4 N001 0 75k
.tran 5m startup
.lib MAXM15067.sub
.backanno
.end
