* C:\Users\adity\AppData\Local\LTspice\examples\ApplicationsCopy\MAXM15064.asc
* Generated by LTspice 24.1.9 for Windows.
V1 IN 0 24
C1 N002 0 1µ
C2 OUT 0 10µ
R5 OUT 0 16.7 m=2
R1 OUT N001 133K
R2 N001 0 75K
X§U1 NC_01 0 NC_02 0 OUT N001 N002 IN IN MAXM15064
.tran 8m startup
.lib MAXM15064.sub
.backanno
.end
