* C:\Users\adity\AppData\Local\LTspice\examples\ApplicationsCopy\MAXM15063.asc
* Generated by LTspice 24.1.9 for Windows.
V1 IN 0 48
C1 N001 0 1µ
C2 OUT 0 10µ
R5 OUT 0 16.7
X§U1 NC_01 0 NC_02 0 OUT OUT N001 IN IN MAXM15063
.tran 8m startup
.lib MAXM15063.sub
.backanno
.end
