* C:\Users\adity\AppData\Local\LTspice\examples\ApplicationsCopy\MAXM15062.asc
* Generated by LTspice 24.1.9 for Windows.
V1 IN 0 24
C1 N001 0 1µ
C2 OUT 0 10µ
R5 OUT 0 11
X§U2 NC_01 0 NC_02 0 OUT OUT N001 IN IN MAXM15062
.tran 8m startup
.lib MAXM15062.sub
.backanno
.end
