* C:\Users\adity\AppData\Local\LTspice\examples\ApplicationsCopy\OP1177.asc
* Generated by LTspice 24.1.9 for Windows.
V1 +V 0 15
Vin IN 0 SINE(0 1 10K)
R1 N001 0 10K
R2 OUT N001 10K
V2 -V 0 -15
Rload OUT 0 10k
X§U1 IN N001 +V -V OUT OP1177
.tran 1m
.lib ADI1.lib
.backanno
.end
