* C:\Users\adity\AppData\Local\LTspice\examples\ApplicationsCopy\OP727.asc
* Generated by LTspice 24.1.9 for Windows.
V1 +V 0 15
Vin IN 0 SINE(0 1 1K)
R1 N001 0 10K
R2 OUT N001 10K
X§U1 IN N001 +V -V OUT OP727
V2 -V 0 -15
Rload OUT 0 10K
.tran 10m
.lib ADI.lib
.backanno
.end
