* C:\Users\adity\AppData\Local\LTspice\examples\ApplicationsCopy\RH117K.asc
* Generated by LTspice 24.1.9 for Windows.
V1 IN 0 SINE(10 100m 100K)
R1 OUT N001 121
R2 N001 N002 121
Rload OUT 0 10
X§U2 N002 0 NC_01 LT1009
X§U1 N001 OUT IN RH117K
.tran 50u
.options plotwinsize=0
.lib LTC.lib
.lib LTC3.lib
.backanno
.end
